Info: SIMULATION PARAMETERS:
Info: TIMESTEP               2
Info: NUMBER OF STEPS        0
Info: STEPS PER CYCLE        10
Info: PERIODIC CELL BASIS 1  200 0 0
Info: PERIODIC CELL BASIS 2  0 200 0
Info: PERIODIC CELL BASIS 3  0 0 200
Info: PERIODIC CELL CENTER   0 0 0
Info: WRAPPING ALL CLUSTERS AROUND PERIODIC BOUNDARIES ON OUTPUT.
Info: WRAPPING TO IMAGE NEAREST TO PERIODIC CELL CENTER.
Info: FIRST LDB TIMESTEP     50
Info: LAST LDB TIMESTEP     -1
Info: HOM BACKGROUND SCALING 1
Info: MIN ATOMS PER PATCH    40
Info: INITIAL TEMPERATURE    300
Info: CENTER OF MASS MOVING INITIALLY? YES
Info: DIELECTRIC             1
Info: EXCLUDE                SCALED ONE-FOUR
Info: 1-4 ELECTROSTATICS SCALED BY 1
Info: MODIFIED 1-4 VDW PARAMETERS WILL BE USED
Info: DCD FILENAME           out_mw_selection.0.dcd
Info: DCD FREQUENCY          5000
Info: DCD FIRST STEP         5000
Info: DCD FILE WILL CONTAIN UNIT CELL DATA
Info: NO EXTENDED SYSTEM TRAJECTORY OUTPUT
Info: NO VELOCITY DCD OUTPUT
Info: NO FORCE DCD OUTPUT
Info: OUTPUT FILENAME        out_mw_selection.0
Info: BINARY OUTPUT FILES WILL BE USED
Info: RESTART FILENAME       out_mw_selection.0.restart
Info: RESTART FREQUENCY      5000
Info: BINARY RESTART FILES WILL BE USED
Info: SWITCHING ACTIVE
Info: SWITCHING ON           10
Info: SWITCHING OFF          12
Info: PAIRLIST DISTANCE      14
Info: PAIRLIST SHRINK RATE   0.01
Info: PAIRLIST GROW RATE     0.01
Info: PAIRLIST TRIGGER       0.3
Info: PAIRLISTS PER CYCLE    2
Info: PAIRLISTS ENABLED
Info: MARGIN                 0
Info: HYDROGEN GROUP CUTOFF  2.5
Info: PATCH DIMENSION        16.5
Info: ENERGY OUTPUT STEPS    1000
Info: CROSSTERM ENERGY INCLUDED IN DIHEDRAL
Info: TIMING OUTPUT STEPS    1000
Info: COLLECTIVE VARIABLES CALCULATION REQUESTED
Info: COLLECTIVE VARIABLES CONFIGURATION   abf_12-15_less.colvars
Info: LANGEVIN DYNAMICS ACTIVE
Info: LANGEVIN TEMPERATURE   300
Info: LANGEVIN USING BBK INTEGRATOR
Info: LANGEVIN DAMPING COEFFICIENT IS 1 INVERSE PS
Info: LANGEVIN DYNAMICS NOT APPLIED TO HYDROGENS
Info: USING VERLET I (r-RESPA) MTS SCHEME.
Info: C1 SPLITTING OF LONG RANGE ELECTROSTATICS
Info: PLACING ATOMS IN PATCHES BY HYDROGEN GROUPS
Info: RIGID BONDS TO HYDROGEN : ALL
Info:         ERROR TOLERANCE : 1e-08
Info:          MAX ITERATIONS : 100
Info: RIGID WATER USING SETTLE ALGORITHM
Info: RANDOM NUMBER SEED     20219
Info: USE HYDROGEN BONDS?    NO
Info: COORDINATE PDB         ../Common/da.min.pdb
Info: STRUCTURE FILE         ../Common/da.psf
Info: PARAMETER file: CHARMM format!
Info: PARAMETERS             ../Common/par_all22_prot.inp
Info: USING ARITHMETIC MEAN TO COMBINE L-J SIGMA PARAMETERS
Info: SUMMARY OF PARAMETERS:
Info: 140 BONDS
Info: 356 ANGLES
Info: 459 DIHEDRAL
Info: 43 IMPROPER
Info: 6 CROSSTERM
Info: 95 VDW
Info: 0 VDW_PAIRS
Info: 0 NBTHOLE_PAIRS
Info: STRUCTURE SUMMARY:
Info: 104 ATOMS
Info: 103 BONDS
Info: 183 ANGLES
Info: 251 DIHEDRALS
Info: 22 IMPROPERS
Info: 0 CROSSTERMS
Info: 0 EXCLUSIONS
Info: 53 RIGID BONDS
Info: 259 DEGREES OF FREEDOM
Info: 51 HYDROGEN GROUPS
Info: 4 ATOMS IN LARGEST HYDROGEN GROUP
Info: 51 MIGRATION GROUPS
Info: 4 ATOMS IN LARGEST MIGRATION GROUP
Info: TOTAL MASS = 727.821 amu
Info: TOTAL CHARGE = 6.70552e-08 e
Info: MASS DENSITY = 0.000151075 g/cm^3
Info: ATOM DENSITY = 1.3e-05 atoms/A^3
Info: ADDED 536 IMPLICIT EXCLUSIONS
Info: NONBONDED TABLE R-SQUARED SPACING: 0.0625
Info: NONBONDED TABLE SIZE: 769 POINTS
TCL: REPLICA_SETUP cycleNum 20 shareFreq 2000 selectCycle 5 repNum 4 rep 0 sampleRad 0 binNum 30 percentStop 40
TCL: CYCLE 0
TCL: Running for 2000 steps
ETITLE: TS BOND ANGLE DIHED IMPRP ELECT VDW BOUNDARY MISC KINETIC TOTAL TEMP POTENTIAL TOTAL3 TEMPAVG PRESSURE GPRESSURE VOLUME PRESSAVG GPRESSAVG
ENERGY: 0 5.0522 19.3821 21.8852 0.4839 58.7580 -19.9253 0.0000 0.0000 69.2190 154.8551 268.9777 85.6361 154.8677 268.9777 0.1363 0.1478 8000000.0000 0.1363 0.1478
ENERGY: 1000 17.2935 56.1475 30.3981 4.3975 67.7206 -15.1067 0.0000 0.0000 55.2434 216.0940 214.6699 160.8506 217.0061 206.4261 0.2475 0.2487 8000000.0000 -0.0365 -0.0366
ENERGY: 2000 24.3887 53.4604 28.0599 2.4691 59.3160 -19.6660 0.0000 0.0000 73.7392 221.7673 286.5424 148.0281 222.9639 263.1590 -0.5182 -0.5141 8000000.0000 0.0032 0.0033
TCL: REPLICA_SHARED_ABF
TCL: REP_BIN REP 0 BIN 24 LASTCOUNT 0 COUNT0 358 COUNT 358
TCL: REPLICA_COUNT 0 358
TCL: REPLICA_COUNT 1 280
TCL: REPLICA_COUNT 2 345
TCL: REPLICA_COUNT 3 186
TCL: REPLICA_WEIGHT_LIST  0.19  0.244  0.198  0.367
TCL: REPLICA_MINMAX 186 358
TCL: REPLICA_SELECTION_ENABLED 48
TCL: REPLICA_CLONE_LIST 1 1 0 2
TCL: REPLICA_SRC_DEST_LIST {3 2}
TCL: REPLICA_BARRIER
TCL: CYCLE 1
TCL: Running for 2000 steps
ETITLE: TS BOND ANGLE DIHED IMPRP ELECT VDW BOUNDARY MISC KINETIC TOTAL TEMP POTENTIAL TOTAL3 TEMPAVG PRESSURE GPRESSURE VOLUME PRESSAVG GPRESSAVG
ENERGY: 2000 24.3887 53.4604 28.0599 2.4691 59.3160 -19.6660 0.0000 0.0000 73.7371 221.7652 286.5343 148.0281 222.7441 286.5343 -0.5164 -0.5102 8000000.0000 -0.5164 -0.5102
ENERGY: 3000 18.2966 64.5446 29.9176 3.5587 61.5935 -18.7370 0.0000 0.0000 82.9603 242.1343 322.3748 159.1740 243.7602 269.2704 -0.6951 -0.6932 8000000.0000 0.0104 0.0104
ENERGY: 4000 21.8418 68.8627 30.7226 3.8707 62.7452 -20.8475 0.0000 0.0000 65.1665 232.3620 253.2298 167.1955 232.6764 302.5806 0.4014 0.4036 8000000.0000 0.0307 0.0308
TCL: REPLICA_SHARED_ABF
TCL: CYCLE 2
TCL: Running for 2000 steps
ETITLE: TS BOND ANGLE DIHED IMPRP ELECT VDW BOUNDARY MISC KINETIC TOTAL TEMP POTENTIAL TOTAL3 TEMPAVG PRESSURE GPRESSURE VOLUME PRESSAVG GPRESSAVG
ENERGY: 4000 21.8418 68.8627 30.7226 3.8707 62.7452 -20.8475 0.0000 0.0000 65.1656 232.3611 253.2263 167.1955 232.9073 253.2263 0.4317 0.4216 8000000.0000 0.4317 0.4216
ENERGY: 5000 13.6236 63.1843 31.7719 5.0741 61.1791 -11.9838 0.0000 0.0000 84.6672 247.5163 329.0075 162.8491 248.3385 307.9770 0.4421 0.4388 8000000.0000 0.0053 0.0052
ENERGY: 6000 22.1420 51.4937 30.1833 4.6533 67.1321 -16.5758 0.0000 0.0000 72.5472 231.5759 281.9107 159.0287 232.5763 305.6276 -0.0392 -0.0338 8000000.0000 0.0032 0.0033
TCL: REPLICA_SHARED_ABF
TCL: CYCLE 3
TCL: Running for 2000 steps
ETITLE: TS BOND ANGLE DIHED IMPRP ELECT VDW BOUNDARY MISC KINETIC TOTAL TEMP POTENTIAL TOTAL3 TEMPAVG PRESSURE GPRESSURE VOLUME PRESSAVG GPRESSAVG
ENERGY: 6000 22.1420 51.4937 30.1833 4.6533 67.1321 -16.5758 0.0000 0.0000 72.5451 231.5738 281.9025 159.0287 232.7246 281.9025 -0.0375 -0.0266 8000000.0000 -0.0375 -0.0266
ENERGY: 7000 21.1101 54.8252 29.4426 2.5603 61.0211 -15.7004 0.0000 0.0000 66.2295 219.4883 257.3607 153.2587 220.6198 285.4669 -0.7952 -0.8114 8000000.0000 0.0375 0.0376
ENERGY: 8000 19.7945 76.0603 30.5522 4.3932 49.6640 -15.1510 0.0000 0.0000 68.4669 233.7800 266.0549 165.3131 234.5327 275.7895 -0.0057 0.0064 8000000.0000 0.0110 0.0112
TCL: REPLICA_SHARED_ABF
TCL: CYCLE 4
TCL: Running for 2000 steps
ETITLE: TS BOND ANGLE DIHED IMPRP ELECT VDW BOUNDARY MISC KINETIC TOTAL TEMP POTENTIAL TOTAL3 TEMPAVG PRESSURE GPRESSURE VOLUME PRESSAVG GPRESSAVG
ENERGY: 8000 19.7945 76.0603 30.5522 4.3932 49.6640 -15.1510 0.0000 0.0000 68.4658 233.7789 266.0505 165.3131 234.5329 266.0505 -0.0048 0.0065 8000000.0000 -0.0048 0.0065
ENERGY: 9000 17.8227 51.3375 33.1065 6.5275 63.1992 -15.1379 0.0000 0.0000 73.0433 229.8988 283.8384 156.8555 231.0123 282.8255 -0.3653 -0.3571 8000000.0000 -0.0118 -0.0115
ENERGY: 10000 21.7998 65.5681 28.6726 4.2086 64.1517 -17.1909 0.0000 0.0000 74.0297 241.2396 287.6715 167.2099 242.4993 301.7588 -0.2579 -0.2513 8000000.0000 0.0156 0.0155
TCL: REPLICA_SHARED_ABF
TCL: CYCLE 5
TCL: Running for 2000 steps
ETITLE: TS BOND ANGLE DIHED IMPRP ELECT VDW BOUNDARY MISC KINETIC TOTAL TEMP POTENTIAL TOTAL3 TEMPAVG PRESSURE GPRESSURE VOLUME PRESSAVG GPRESSAVG
ENERGY: 10000 21.7998 65.5681 28.6726 4.2086 64.1517 -17.1909 0.0000 0.0000 74.0288 241.2386 287.6677 167.2099 241.9606 287.6677 -0.3113 -0.3047 8000000.0000 -0.3113 -0.3047
ENERGY: 11000 21.4774 58.1177 30.6943 4.6265 64.6365 -11.0115 0.0000 0.0000 76.1766 244.7173 296.0139 168.5408 245.6512 300.9101 -0.7196 -0.7369 8000000.0000 0.0053 0.0052
ENERGY: 12000 36.4272 51.2946 28.8907 1.9131 68.5335 -17.7066 0.0000 0.0000 76.0435 245.3960 295.4967 169.3525 246.1367 303.6097 -0.6883 -0.6890 8000000.0000 -0.0016 -0.0017
TCL: REPLICA_SHARED_ABF
TCL: REP_BIN REP 0 BIN 11 LASTCOUNT 104 COUNT0 1587 COUNT 1587
TCL: REPLICA_COUNT 0 1587
TCL: REPLICA_COUNT 1 1567
TCL: REPLICA_COUNT 2 1473
TCL: REPLICA_COUNT 3 77
TCL: REPLICA_WEIGHT_LIST  0.0422  0.0427  0.0455  0.87
TCL: REPLICA_MINMAX 77 1587
TCL: REPLICA_SELECTION_ENABLED 95
TCL: REPLICA_CLONE_LIST 0 0 1 3
TCL: REPLICA_SRC_DEST_LIST {3 0} {3 1}
TCL: REPLICA_BARRIER
TCL: REPLICA_ATOM_RECV 3
TCL: CYCLE 6
TCL: Running for 2000 steps
ETITLE: TS BOND ANGLE DIHED IMPRP ELECT VDW BOUNDARY MISC KINETIC TOTAL TEMP POTENTIAL TOTAL3 TEMPAVG PRESSURE GPRESSURE VOLUME PRESSAVG GPRESSAVG
ENERGY: 12000 21.2638 67.3509 32.8466 8.0295 54.0204 -15.8073 0.0000 0.0000 85.6702 253.3741 332.9051 167.7039 254.3191 332.9051 0.7987 0.7976 8000000.0000 0.7987 0.7976
ENERGY: 13000 20.0220 63.5073 31.8625 5.6580 66.8950 -16.2742 0.0000 0.0000 78.5100 250.1807 305.0814 171.6707 250.7309 318.5277 -1.1041 -1.1259 8000000.0000 -0.0302 -0.0307
ENERGY: 14000 19.5642 63.1475 30.3255 4.0757 55.4558 -10.2090 0.0000 0.0000 77.7373 240.0970 302.0787 162.3597 241.0377 294.0787 0.0089 -0.0102 8000000.0000 -0.0162 -0.0163
TCL: REPLICA_SHARED_ABF
TCL: CYCLE 7
TCL: Running for 2000 steps
ETITLE: TS BOND ANGLE DIHED IMPRP ELECT VDW BOUNDARY MISC KINETIC TOTAL TEMP POTENTIAL TOTAL3 TEMPAVG PRESSURE GPRESSURE VOLUME PRESSAVG GPRESSAVG
ENERGY: 14000 19.5642 63.1475 30.3255 4.0757 55.4558 -10.2090 0.0000 0.0000 77.7352 240.0949 302.0706 162.3597 240.7818 302.0706 0.0030 -0.0003 8000000.0000 0.0030 -0.0003
ENERGY: 15000 21.3267 67.1544 32.7134 3.3358 61.7864 -14.6752 0.0000 0.0000 76.7638 248.4052 298.2959 171.6414 249.1302 310.6826 0.2078 0.2057 8000000.0000 -0.0181 -0.0180
ENERGY: 16000 14.8183 62.9306 28.6979 1.7731 56.4757 -6.4320 0.0000 0.0000 70.0415 228.3050 272.1735 158.2636 229.7747 296.5939 0.4920 0.4823 8000000.0000 0.0362 0.0364
TCL: REPLICA_SHARED_ABF
TCL: CYCLE 8
TCL: Running for 2000 steps
ETITLE: TS BOND ANGLE DIHED IMPRP ELECT VDW BOUNDARY MISC KINETIC TOTAL TEMP POTENTIAL TOTAL3 TEMPAVG PRESSURE GPRESSURE VOLUME PRESSAVG GPRESSAVG
ENERGY: 16000 14.8183 62.9306 28.6979 1.7731 56.4757 -6.4320 0.0000 0.0000 70.0400 228.3036 272.1678 158.2636 229.0945 272.1678 0.4924 0.4852 8000000.0000 0.4924 0.4852
ENERGY: 17000 25.9884 58.9228 28.4268 4.4387 65.9334 -19.3163 0.0000 0.0000 74.7279 239.1217 290.3845 164.3938 240.0228 279.4352 -1.7015 -1.6852 8000000.0000 0.0141 0.0140
ENERGY: 18000 18.9031 58.7906 30.6619 4.0157 70.3630 -17.2029 0.0000 0.0000 76.3143 241.8457 296.5491 165.5314 242.6747 295.2694 -0.4758 -0.4783 8000000.0000 -0.0015 -0.0015
TCL: REPLICA_SHARED_ABF
TCL: CYCLE 9
TCL: Running for 2000 steps
ETITLE: TS BOND ANGLE DIHED IMPRP ELECT VDW BOUNDARY MISC KINETIC TOTAL TEMP POTENTIAL TOTAL3 TEMPAVG PRESSURE GPRESSURE VOLUME PRESSAVG GPRESSAVG
ENERGY: 18000 18.9031 58.7906 30.6619 4.0157 70.3630 -17.2029 0.0000 0.0000 76.3133 241.8447 296.5452 165.5314 242.7286 296.5452 -0.4796 -0.4786 8000000.0000 -0.4796 -0.4786
ENERGY: 19000 17.4017 56.6516 28.6476 3.8991 63.8692 -17.5224 0.0000 0.0000 82.6993 235.6460 321.3605 152.9467 237.0493 278.0450 0.2398 0.2135 8000000.0000 -0.0251 -0.0251
ENERGY: 20000 26.0045 60.6580 31.3726 3.7658 64.0087 -19.5623 0.0000 0.0000 74.3748 240.6222 289.0123 166.2474 241.9082 294.1776 0.2652 0.2500 8000000.0000 0.0068 0.0068
TCL: REPLICA_SHARED_ABF
TCL: CYCLE 10
TCL: Running for 2000 steps
ETITLE: TS BOND ANGLE DIHED IMPRP ELECT VDW BOUNDARY MISC KINETIC TOTAL TEMP POTENTIAL TOTAL3 TEMPAVG PRESSURE GPRESSURE VOLUME PRESSAVG GPRESSAVG
ENERGY: 20000 26.0045 60.6580 31.3726 3.7658 64.0087 -19.5623 0.0000 0.0000 74.3736 240.6210 289.0078 166.2474 241.5411 289.0078 0.2789 0.2675 8000000.0000 0.2789 0.2675
ENERGY: 21000 15.0807 51.9328 28.5620 3.5061 66.7860 -7.3036 0.0000 0.0000 78.4903 237.0544 305.0049 158.5641 238.4700 304.6613 0.4289 0.4240 8000000.0000 0.0220 0.0221
ENERGY: 22000 27.1627 56.3943 27.9251 2.4456 62.8917 -11.7369 0.0000 0.0000 79.4753 244.5578 308.8325 165.0824 245.2867 292.5863 0.3279 0.3287 8000000.0000 -0.0137 -0.0136
TCL: REPLICA_SHARED_ABF
TCL: REP_BIN REP 0 BIN 19 LASTCOUNT 2556 COUNT0 3796 COUNT 3796
TCL: REPLICA_COUNT 0 3796
TCL: REPLICA_COUNT 1 3663
TCL: REPLICA_COUNT 2 2658
TCL: REPLICA_COUNT 3 3480
TCL: REPLICA_WEIGHT_LIST  0.219  0.228  0.314  0.239
TCL: REPLICA_MINMAX 2658 3796
TCL: REPLICA_SELECTION_DISABLED 29
TCL: REPLICA_SRC_DEST_EMPTY
TCL: CYCLE 11
TCL: Running for 2000 steps
ETITLE: TS BOND ANGLE DIHED IMPRP ELECT VDW BOUNDARY MISC KINETIC TOTAL TEMP POTENTIAL TOTAL3 TEMPAVG PRESSURE GPRESSURE VOLUME PRESSAVG GPRESSAVG
ENERGY: 22000 27.1627 56.3943 27.9251 2.4456 62.8917 -11.7369 0.0000 0.0000 79.4739 244.5563 308.8270 165.0824 245.3573 308.8270 0.3381 0.3356 8000000.0000 0.3381 0.3356
ENERGY: 23000 21.6362 54.6645 30.4519 4.4284 65.5983 -18.3102 0.0000 0.0000 75.7840 234.2529 294.4885 158.4689 235.5698 300.1593 0.2231 0.2115 8000000.0000 0.0321 0.0320
ENERGY: 24000 27.0675 51.6505 32.1482 5.3167 60.3909 -19.1687 0.0000 0.0000 71.4113 228.8163 277.4964 157.4050 229.8158 285.1650 0.2191 0.2024 8000000.0000 0.0054 0.0056
TCL: REPLICA_SHARED_ABF
TCL: CYCLE 12
TCL: Running for 2000 steps
ETITLE: TS BOND ANGLE DIHED IMPRP ELECT VDW BOUNDARY MISC KINETIC TOTAL TEMP POTENTIAL TOTAL3 TEMPAVG PRESSURE GPRESSURE VOLUME PRESSAVG GPRESSAVG
ENERGY: 24000 27.0675 51.6505 32.1482 5.3167 60.3909 -19.1687 0.0000 0.0000 71.4100 228.8151 277.4917 157.4050 229.9716 277.4917 0.2109 0.2091 8000000.0000 0.2109 0.2091
ENERGY: 25000 22.5201 58.2558 30.2039 4.7374 66.8353 -19.3939 0.0000 0.0000 68.9078 232.0663 267.7681 163.1586 233.0012 305.0996 -0.3758 -0.3794 8000000.0000 0.0459 0.0462
ENERGY: 26000 21.6517 64.2499 32.2208 3.5848 68.1241 -18.2820 0.0000 0.0000 96.9536 268.5028 376.7511 171.5492 269.6262 312.2765 -0.5536 -0.5415 8000000.0000 0.0088 0.0088
TCL: REPLICA_SHARED_ABF
TCL: CYCLE 13
TCL: Running for 2000 steps
ETITLE: TS BOND ANGLE DIHED IMPRP ELECT VDW BOUNDARY MISC KINETIC TOTAL TEMP POTENTIAL TOTAL3 TEMPAVG PRESSURE GPRESSURE VOLUME PRESSAVG GPRESSAVG
ENERGY: 26000 21.6517 64.2499 32.2208 3.5848 68.1241 -18.2820 0.0000 0.0000 96.9521 268.5014 376.7455 171.5492 269.7409 376.7455 -0.5496 -0.5392 8000000.0000 -0.5496 -0.5392
ENERGY: 27000 21.2006 68.2222 34.0016 8.0646 61.1527 -17.1661 0.0000 0.0000 89.7654 265.2409 348.8185 175.4756 266.1491 351.8267 -0.8794 -0.8784 8000000.0000 0.0043 0.0045
ENERGY: 28000 15.5829 59.0831 30.0689 7.3332 62.7823 -18.8072 0.0000 0.0000 78.0824 234.1255 303.4196 156.0431 235.1386 318.7794 0.7422 0.7403 8000000.0000 0.0275 0.0274
TCL: REPLICA_SHARED_ABF
TCL: CYCLE 14
TCL: Running for 2000 steps
ETITLE: TS BOND ANGLE DIHED IMPRP ELECT VDW BOUNDARY MISC KINETIC TOTAL TEMP POTENTIAL TOTAL3 TEMPAVG PRESSURE GPRESSURE VOLUME PRESSAVG GPRESSAVG
ENERGY: 28000 15.5829 59.0831 30.0689 7.3332 62.7823 -18.8072 0.0000 0.0000 78.0809 234.1240 303.4138 156.0431 235.4912 303.4138 0.7293 0.7268 8000000.0000 0.7293 0.7268
ENERGY: 29000 21.8650 58.1133 27.8816 2.8129 61.7009 -15.1939 0.0000 0.0000 73.5620 230.7417 285.8538 157.1798 231.6249 281.5152 -0.0645 -0.0598 8000000.0000 -0.0110 -0.0111
ENERGY: 30000 19.7393 56.2903 30.5850 2.1586 56.7915 -15.9872 0.0000 0.0000 71.9219 221.4993 279.4805 149.5775 222.2438 276.8297 0.2077 0.2144 8000000.0000 0.0013 0.0013
TCL: REPLICA_SHARED_ABF
TCL: CYCLE 15
TCL: Running for 2000 steps
ETITLE: TS BOND ANGLE DIHED IMPRP ELECT VDW BOUNDARY MISC KINETIC TOTAL TEMP POTENTIAL TOTAL3 TEMPAVG PRESSURE GPRESSURE VOLUME PRESSAVG GPRESSAVG
ENERGY: 30000 19.7393 56.2903 30.5850 2.1586 56.7915 -15.9872 0.0000 0.0000 71.9208 221.4983 279.4764 149.5775 222.2105 279.4764 0.2144 0.2154 8000000.0000 0.2144 0.2154
ENERGY: 31000 17.5179 52.3556 26.9526 3.3147 62.9087 -15.9585 0.0000 0.0000 82.2668 229.3576 319.6797 147.0909 230.8247 266.5862 0.2245 0.2248 8000000.0000 0.0241 0.0244
ENERGY: 32000 20.3161 60.3928 27.9487 3.6318 62.7262 -15.5474 0.0000 0.0000 68.2652 227.7334 265.2712 159.4682 228.8790 289.2571 -0.7511 -0.7312 8000000.0000 -0.0259 -0.0259
TCL: REPLICA_SHARED_ABF
TCL: REP_BIN REP 0 BIN 29 LASTCOUNT 1376 COUNT0 3548 COUNT 3548
TCL: REPLICA_COUNT 0 3548
TCL: REPLICA_COUNT 1 3548
TCL: REPLICA_COUNT 2 4938
TCL: REPLICA_COUNT 3 4902
TCL: REPLICA_WEIGHT_LIST  0.29  0.291  0.209  0.21
TCL: REPLICA_MINMAX 3548 4938
TCL: REPLICA_SELECTION_DISABLED 28
TCL: REPLICA_SRC_DEST_EMPTY
TCL: CYCLE 16
TCL: Running for 2000 steps
ETITLE: TS BOND ANGLE DIHED IMPRP ELECT VDW BOUNDARY MISC KINETIC TOTAL TEMP POTENTIAL TOTAL3 TEMPAVG PRESSURE GPRESSURE VOLUME PRESSAVG GPRESSAVG
ENERGY: 32000 20.3161 60.3928 27.9487 3.6318 62.7262 -15.5474 0.0000 0.0000 68.2635 227.7317 265.2645 159.4682 228.7828 265.2645 -0.7483 -0.7306 8000000.0000 -0.7483 -0.7306
ENERGY: 33000 18.5472 75.4229 33.2682 5.4878 58.4922 -13.5645 0.0000 0.0000 72.4382 250.0920 281.4870 177.6537 250.8177 297.6181 -0.2193 -0.2202 8000000.0000 0.0254 0.0251
ENERGY: 34000 21.5401 64.9259 29.0048 4.2420 56.5977 -18.2056 0.0000 0.0000 74.4711 232.5759 289.3865 158.1048 233.4524 292.1049 -0.9172 -0.9009 8000000.0000 -0.0175 -0.0171
TCL: REPLICA_SHARED_ABF
TCL: CYCLE 17
TCL: Running for 2000 steps
ETITLE: TS BOND ANGLE DIHED IMPRP ELECT VDW BOUNDARY MISC KINETIC TOTAL TEMP POTENTIAL TOTAL3 TEMPAVG PRESSURE GPRESSURE VOLUME PRESSAVG GPRESSAVG
ENERGY: 34000 21.5401 64.9259 29.0048 4.2420 56.5977 -18.2056 0.0000 0.0000 74.4687 232.5735 289.3772 158.1048 233.3238 289.3772 -0.9208 -0.9040 8000000.0000 -0.9208 -0.9040
ENERGY: 35000 23.2005 63.3392 27.0473 3.0359 61.5894 -10.4863 0.0000 0.0000 73.3169 241.0428 284.9015 167.7259 241.8065 294.1321 -0.2440 -0.2403 8000000.0000 0.0103 0.0101
ENERGY: 36000 22.9906 66.7536 31.9710 5.0431 59.9624 -18.5194 0.0000 0.0000 75.4276 243.6289 293.1032 168.2013 244.3311 303.4357 -1.4447 -1.4448 8000000.0000 0.0188 0.0186
TCL: REPLICA_SHARED_ABF
TCL: CYCLE 18
TCL: Running for 2000 steps
ETITLE: TS BOND ANGLE DIHED IMPRP ELECT VDW BOUNDARY MISC KINETIC TOTAL TEMP POTENTIAL TOTAL3 TEMPAVG PRESSURE GPRESSURE VOLUME PRESSAVG GPRESSAVG
ENERGY: 36000 22.9906 66.7536 31.9710 5.0431 59.9624 -18.5194 0.0000 0.0000 75.4260 243.6273 293.0972 168.2013 244.2319 293.0972 -1.4532 -1.4484 8000000.0000 -1.4532 -1.4484
ENERGY: 37000 21.6132 67.3233 35.4738 3.3488 52.6314 -11.1288 0.0000 0.0000 78.5331 247.7949 305.1710 169.2618 249.0897 300.6441 0.8095 0.8193 8000000.0000 -0.0152 -0.0151
ENERGY: 38000 26.7186 46.5223 28.7536 4.3579 66.2425 -10.4821 0.0000 0.0000 89.9557 252.0685 349.5580 162.1128 253.4661 309.2957 -0.4335 -0.4538 8000000.0000 0.0598 0.0597
TCL: REPLICA_SHARED_ABF
TCL: CYCLE 19
TCL: Running for 2000 steps
ETITLE: TS BOND ANGLE DIHED IMPRP ELECT VDW BOUNDARY MISC KINETIC TOTAL TEMP POTENTIAL TOTAL3 TEMPAVG PRESSURE GPRESSURE VOLUME PRESSAVG GPRESSAVG
ENERGY: 38000 26.7186 46.5223 28.7536 4.3579 66.2425 -10.4821 0.0000 0.0000 89.9543 252.0670 349.5525 162.1128 253.1578 349.5525 -0.4326 -0.4578 8000000.0000 -0.4326 -0.4578
ENERGY: 39000 14.0207 69.9505 29.5579 4.2482 63.9775 -18.9581 0.0000 0.0000 62.7102 225.5069 243.6849 162.7967 225.9877 294.4226 -0.0885 -0.1205 8000000.0000 -0.0061 -0.0059
ENERGY: 40000 19.4192 56.6881 31.3145 4.8847 64.4699 -13.5603 0.0000 0.0000 70.8165 234.0325 275.1852 163.2160 234.5654 269.1040 0.1274 0.1094 8000000.0000 0.0033 0.0033
TCL: REPLICA_SHARED_ABF
