Info: SIMULATION PARAMETERS:
Info: TIMESTEP               2
Info: NUMBER OF STEPS        0
Info: STEPS PER CYCLE        10
Info: PERIODIC CELL BASIS 1  200 0 0
Info: PERIODIC CELL BASIS 2  0 200 0
Info: PERIODIC CELL BASIS 3  0 0 200
Info: PERIODIC CELL CENTER   0 0 0
Info: WRAPPING ALL CLUSTERS AROUND PERIODIC BOUNDARIES ON OUTPUT.
Info: WRAPPING TO IMAGE NEAREST TO PERIODIC CELL CENTER.
Info: FIRST LDB TIMESTEP     50
Info: LAST LDB TIMESTEP     -1
Info: HOM BACKGROUND SCALING 1
Info: MIN ATOMS PER PATCH    40
Info: INITIAL TEMPERATURE    300
Info: CENTER OF MASS MOVING INITIALLY? YES
Info: DIELECTRIC             1
Info: EXCLUDE                SCALED ONE-FOUR
Info: 1-4 ELECTROSTATICS SCALED BY 1
Info: MODIFIED 1-4 VDW PARAMETERS WILL BE USED
Info: DCD FILENAME           out_mw_selection.2.dcd
Info: DCD FREQUENCY          5000
Info: DCD FIRST STEP         5000
Info: DCD FILE WILL CONTAIN UNIT CELL DATA
Info: NO EXTENDED SYSTEM TRAJECTORY OUTPUT
Info: NO VELOCITY DCD OUTPUT
Info: NO FORCE DCD OUTPUT
Info: OUTPUT FILENAME        out_mw_selection.2
Info: BINARY OUTPUT FILES WILL BE USED
Info: RESTART FILENAME       out_mw_selection.2.restart
Info: RESTART FREQUENCY      5000
Info: BINARY RESTART FILES WILL BE USED
Info: SWITCHING ACTIVE
Info: SWITCHING ON           10
Info: SWITCHING OFF          12
Info: PAIRLIST DISTANCE      14
Info: PAIRLIST SHRINK RATE   0.01
Info: PAIRLIST GROW RATE     0.01
Info: PAIRLIST TRIGGER       0.3
Info: PAIRLISTS PER CYCLE    2
Info: PAIRLISTS ENABLED
Info: MARGIN                 0
Info: HYDROGEN GROUP CUTOFF  2.5
Info: PATCH DIMENSION        16.5
Info: ENERGY OUTPUT STEPS    1000
Info: CROSSTERM ENERGY INCLUDED IN DIHEDRAL
Info: TIMING OUTPUT STEPS    1000
Info: COLLECTIVE VARIABLES CALCULATION REQUESTED
Info: COLLECTIVE VARIABLES CONFIGURATION   abf_12-15_less.colvars
Info: LANGEVIN DYNAMICS ACTIVE
Info: LANGEVIN TEMPERATURE   300
Info: LANGEVIN USING BBK INTEGRATOR
Info: LANGEVIN DAMPING COEFFICIENT IS 1 INVERSE PS
Info: LANGEVIN DYNAMICS NOT APPLIED TO HYDROGENS
Info: USING VERLET I (r-RESPA) MTS SCHEME.
Info: C1 SPLITTING OF LONG RANGE ELECTROSTATICS
Info: PLACING ATOMS IN PATCHES BY HYDROGEN GROUPS
Info: RIGID BONDS TO HYDROGEN : ALL
Info:         ERROR TOLERANCE : 1e-08
Info:          MAX ITERATIONS : 100
Info: RIGID WATER USING SETTLE ALGORITHM
Info: RANDOM NUMBER SEED     182083
Info: USE HYDROGEN BONDS?    NO
Info: COORDINATE PDB         ../Common/da.min.pdb
Info: STRUCTURE FILE         ../Common/da.psf
Info: PARAMETER file: CHARMM format!
Info: PARAMETERS             ../Common/par_all22_prot.inp
Info: USING ARITHMETIC MEAN TO COMBINE L-J SIGMA PARAMETERS
Info: SUMMARY OF PARAMETERS:
Info: 140 BONDS
Info: 356 ANGLES
Info: 459 DIHEDRAL
Info: 43 IMPROPER
Info: 6 CROSSTERM
Info: 95 VDW
Info: 0 VDW_PAIRS
Info: 0 NBTHOLE_PAIRS
Info: STRUCTURE SUMMARY:
Info: 104 ATOMS
Info: 103 BONDS
Info: 183 ANGLES
Info: 251 DIHEDRALS
Info: 22 IMPROPERS
Info: 0 CROSSTERMS
Info: 0 EXCLUSIONS
Info: 53 RIGID BONDS
Info: 259 DEGREES OF FREEDOM
Info: 51 HYDROGEN GROUPS
Info: 4 ATOMS IN LARGEST HYDROGEN GROUP
Info: 51 MIGRATION GROUPS
Info: 4 ATOMS IN LARGEST MIGRATION GROUP
Info: TOTAL MASS = 727.821 amu
Info: TOTAL CHARGE = 6.70552e-08 e
Info: MASS DENSITY = 0.000151075 g/cm^3
Info: ATOM DENSITY = 1.3e-05 atoms/A^3
Info: ADDED 536 IMPLICIT EXCLUSIONS
Info: NONBONDED TABLE R-SQUARED SPACING: 0.0625
Info: NONBONDED TABLE SIZE: 769 POINTS
TCL: REPLICA_SETUP cycleNum 20 shareFreq 2000 selectCycle 5 repNum 4 rep 2 sampleRad 0 binNum 30 percentStop 40
TCL: CYCLE 0
TCL: Running for 2000 steps
ETITLE: TS BOND ANGLE DIHED IMPRP ELECT VDW BOUNDARY MISC KINETIC TOTAL TEMP POTENTIAL TOTAL3 TEMPAVG PRESSURE GPRESSURE VOLUME PRESSAVG GPRESSAVG
ENERGY: 0 5.0522 19.3821 21.8852 0.4839 58.7580 -19.9253 0.0000 0.0000 87.2711 172.9072 339.1258 85.6361 172.9253 339.1258 0.2022 0.2087 8000000.0000 0.2022 0.2087
ENERGY: 1000 14.1457 51.5865 25.8773 2.8502 58.0035 -5.1198 0.0000 0.0000 68.1450 215.4885 264.8042 147.3434 216.4172 210.8603 0.9441 0.9324 8000000.0000 0.0094 0.0091
ENERGY: 2000 14.5045 59.8248 28.4131 2.5302 67.4562 -15.9558 0.0000 0.0000 73.5448 230.3178 285.7869 156.7730 231.2613 265.4676 -0.1522 -0.1446 8000000.0000 -0.0275 -0.0276
TCL: REPLICA_SHARED_ABF
TCL: REP_BIN REP 2 BIN 22 LASTCOUNT 0 COUNT0 345 COUNT 345
TCL: REPLICA_SRC_DEST_LIST {3 2}
TCL: REPLICA_BARRIER
TCL: REPLICA_ATOM_RECV 3
TCL: CYCLE 1
TCL: Running for 2000 steps
ETITLE: TS BOND ANGLE DIHED IMPRP ELECT VDW BOUNDARY MISC KINETIC TOTAL TEMP POTENTIAL TOTAL3 TEMPAVG PRESSURE GPRESSURE VOLUME PRESSAVG GPRESSAVG
ENERGY: 2000 19.1146 64.1559 29.3987 2.8204 61.2334 -13.3542 0.0000 0.0000 87.2127 250.5815 338.8992 163.3688 251.3567 338.8992 -0.2440 -0.2122 8000000.0000 -0.2440 -0.2122
ENERGY: 3000 21.4945 68.6520 27.6265 2.6996 58.3004 -18.5652 0.0000 0.0000 76.9425 237.1503 298.9902 160.2078 238.1939 305.3918 -0.1977 -0.2080 8000000.0000 -0.0092 -0.0093
ENERGY: 4000 25.2525 62.4274 28.6373 4.5706 58.7781 -16.1169 0.0000 0.0000 78.7464 242.2954 305.9997 163.5490 243.1529 298.7114 -0.3385 -0.3486 8000000.0000 0.0318 0.0322
TCL: REPLICA_SHARED_ABF
TCL: CYCLE 2
TCL: Running for 2000 steps
ETITLE: TS BOND ANGLE DIHED IMPRP ELECT VDW BOUNDARY MISC KINETIC TOTAL TEMP POTENTIAL TOTAL3 TEMPAVG PRESSURE GPRESSURE VOLUME PRESSAVG GPRESSAVG
ENERGY: 4000 25.2525 62.4274 28.6373 4.5706 58.7781 -16.1169 0.0000 0.0000 78.7444 242.2934 305.9920 163.5490 243.2854 305.9920 -0.4832 -0.4929 8000000.0000 -0.4832 -0.4929
ENERGY: 5000 16.1598 62.8646 32.2187 5.4846 60.2341 -14.5695 0.0000 0.0000 73.6812 236.0734 286.3170 162.3922 237.0192 299.2922 0.4692 0.4597 8000000.0000 -0.0096 -0.0094
ENERGY: 6000 20.8999 57.8095 28.8379 6.2481 66.2256 -19.9760 0.0000 0.0000 73.3750 233.4201 285.1273 160.0451 234.2944 285.5204 -0.1870 -0.1775 8000000.0000 -0.0047 -0.0048
TCL: REPLICA_SHARED_ABF
TCL: CYCLE 3
TCL: Running for 2000 steps
ETITLE: TS BOND ANGLE DIHED IMPRP ELECT VDW BOUNDARY MISC KINETIC TOTAL TEMP POTENTIAL TOTAL3 TEMPAVG PRESSURE GPRESSURE VOLUME PRESSAVG GPRESSAVG
ENERGY: 6000 20.8999 57.8095 28.8379 6.2481 66.2256 -19.9760 0.0000 0.0000 73.3737 233.4187 285.1222 160.0451 234.2419 285.1222 -0.1882 -0.1772 8000000.0000 -0.1882 -0.1772
ENERGY: 7000 23.6760 62.6190 29.6507 5.0775 64.9650 -12.5180 0.0000 0.0000 76.7052 250.1754 298.0682 173.4701 250.9620 306.0281 -1.1225 -1.0953 8000000.0000 0.0099 0.0099
ENERGY: 8000 16.0838 61.1838 30.3452 6.0208 55.4279 -12.9459 0.0000 0.0000 86.1090 242.2247 334.6103 156.1157 243.2263 301.0147 0.0479 0.0524 8000000.0000 -0.0233 -0.0234
TCL: REPLICA_SHARED_ABF
TCL: CYCLE 4
TCL: Running for 2000 steps
ETITLE: TS BOND ANGLE DIHED IMPRP ELECT VDW BOUNDARY MISC KINETIC TOTAL TEMP POTENTIAL TOTAL3 TEMPAVG PRESSURE GPRESSURE VOLUME PRESSAVG GPRESSAVG
ENERGY: 8000 16.0838 61.1838 30.3452 6.0208 55.4279 -12.9459 0.0000 0.0000 86.1081 242.2238 334.6066 156.1157 243.2989 334.6066 0.0418 0.0455 8000000.0000 0.0418 0.0455
ENERGY: 9000 15.1679 69.4375 29.8217 6.2411 57.6024 -16.1286 0.0000 0.0000 79.5367 241.6788 309.0711 162.1420 242.5937 303.4194 0.5599 0.5611 8000000.0000 0.0224 0.0225
ENERGY: 10000 13.0555 64.8144 27.7672 5.8245 59.6279 -18.0971 0.0000 0.0000 73.8536 226.8460 286.9872 152.9924 227.8017 279.4027 0.3999 0.4141 8000000.0000 0.0056 0.0060
TCL: REPLICA_SHARED_ABF
TCL: CYCLE 5
TCL: Running for 2000 steps
ETITLE: TS BOND ANGLE DIHED IMPRP ELECT VDW BOUNDARY MISC KINETIC TOTAL TEMP POTENTIAL TOTAL3 TEMPAVG PRESSURE GPRESSURE VOLUME PRESSAVG GPRESSAVG
ENERGY: 10000 13.0555 64.8144 27.7672 5.8245 59.6279 -18.0971 0.0000 0.0000 73.8520 226.8444 286.9807 152.9924 227.9185 286.9807 0.4030 0.4170 8000000.0000 0.4030 0.4170
ENERGY: 11000 21.6641 48.7797 27.0815 2.8265 66.8417 -18.0805 0.0000 0.0000 80.5702 229.6832 313.0871 149.1130 231.1739 287.2076 0.2040 0.1897 8000000.0000 0.0146 0.0144
ENERGY: 12000 18.0237 47.2963 26.9644 2.9278 66.8781 -6.3503 0.0000 0.0000 76.2430 231.9829 296.2720 155.7399 233.2427 278.2885 0.6293 0.6349 8000000.0000 0.0040 0.0037
TCL: REPLICA_SHARED_ABF
TCL: REP_BIN REP 2 BIN 20 LASTCOUNT 714 COUNT0 3097 COUNT 3097
TCL: REPLICA_SRC_DEST_LIST {3 2}
TCL: REPLICA_BARRIER
TCL: REPLICA_ATOM_RECV 3
TCL: CYCLE 6
TCL: Running for 2000 steps
ETITLE: TS BOND ANGLE DIHED IMPRP ELECT VDW BOUNDARY MISC KINETIC TOTAL TEMP POTENTIAL TOTAL3 TEMPAVG PRESSURE GPRESSURE VOLUME PRESSAVG GPRESSAVG
ENERGY: 12000 22.4219 59.6276 29.5573 2.9762 65.1819 -17.5601 0.0000 0.0000 93.1080 255.3128 361.8077 162.2048 256.6473 361.8077 -0.0618 -0.0715 8000000.0000 -0.0618 -0.0715
ENERGY: 13000 21.4106 71.6701 30.9935 3.6268 59.2737 -23.6757 0.0000 0.0000 76.1188 239.4178 295.7893 163.2990 240.7925 305.6190 -0.2458 -0.2388 8000000.0000 0.0078 0.0077
ENERGY: 14000 17.7489 60.7720 32.6547 3.9792 53.3884 -9.2602 0.0000 0.0000 81.8671 241.1501 318.1265 159.2830 242.1951 291.2656 0.7164 0.6965 8000000.0000 0.0131 0.0132
TCL: REPLICA_SHARED_ABF
TCL: CYCLE 7
TCL: Running for 2000 steps
ETITLE: TS BOND ANGLE DIHED IMPRP ELECT VDW BOUNDARY MISC KINETIC TOTAL TEMP POTENTIAL TOTAL3 TEMPAVG PRESSURE GPRESSURE VOLUME PRESSAVG GPRESSAVG
ENERGY: 14000 17.7489 60.7720 32.6547 3.9792 53.3884 -9.2602 0.0000 0.0000 81.8659 241.1489 318.1220 159.2830 242.1568 318.1220 0.7210 0.6988 8000000.0000 0.7210 0.6988
ENERGY: 15000 27.9223 70.3518 31.1069 3.4291 54.8246 -19.9115 0.0000 0.0000 80.8228 248.5459 314.0685 167.7232 249.4318 309.8034 -0.0841 -0.0813 8000000.0000 0.0166 0.0167
ENERGY: 16000 28.3786 56.7825 29.1535 4.4558 63.7073 -8.6975 0.0000 0.0000 86.8577 260.6378 337.5197 173.7801 261.9305 336.8128 0.1087 0.1011 8000000.0000 0.0198 0.0199
TCL: REPLICA_SHARED_ABF
TCL: CYCLE 8
TCL: Running for 2000 steps
ETITLE: TS BOND ANGLE DIHED IMPRP ELECT VDW BOUNDARY MISC KINETIC TOTAL TEMP POTENTIAL TOTAL3 TEMPAVG PRESSURE GPRESSURE VOLUME PRESSAVG GPRESSAVG
ENERGY: 16000 28.3786 56.7825 29.1535 4.4558 63.7073 -8.6975 0.0000 0.0000 86.8559 260.6360 337.5125 173.7801 261.8842 337.5125 0.1032 0.0918 8000000.0000 0.1032 0.0918
ENERGY: 17000 15.1626 57.9464 28.7196 8.0113 62.6910 -13.9368 0.0000 0.0000 86.8640 245.4581 337.5440 158.5941 247.0048 325.4383 0.7111 0.6839 8000000.0000 0.0130 0.0131
ENERGY: 18000 22.0864 54.0657 30.3187 5.9519 59.6201 -10.5184 0.0000 0.0000 74.0217 235.5461 287.6404 161.5244 236.5032 289.8588 0.3177 0.3211 8000000.0000 0.0067 0.0068
TCL: REPLICA_SHARED_ABF
TCL: CYCLE 9
TCL: Running for 2000 steps
ETITLE: TS BOND ANGLE DIHED IMPRP ELECT VDW BOUNDARY MISC KINETIC TOTAL TEMP POTENTIAL TOTAL3 TEMPAVG PRESSURE GPRESSURE VOLUME PRESSAVG GPRESSAVG
ENERGY: 18000 22.0864 54.0657 30.3187 5.9519 59.6201 -10.5184 0.0000 0.0000 74.0197 235.5441 287.6326 161.5244 236.6295 287.6326 0.3620 0.3665 8000000.0000 0.3620 0.3665
ENERGY: 19000 13.2532 53.7795 31.7867 6.2908 71.3178 -14.1319 0.0000 0.0000 70.9900 233.2861 275.8594 162.2961 234.3609 282.9530 0.8878 0.8839 8000000.0000 0.0109 0.0107
ENERGY: 20000 18.7141 57.9978 31.3037 4.0172 72.1672 -11.5002 0.0000 0.0000 84.8184 257.5182 329.5949 172.6998 258.8689 324.1810 0.3629 0.3808 8000000.0000 0.0171 0.0172
TCL: REPLICA_SHARED_ABF
TCL: CYCLE 10
TCL: Running for 2000 steps
ETITLE: TS BOND ANGLE DIHED IMPRP ELECT VDW BOUNDARY MISC KINETIC TOTAL TEMP POTENTIAL TOTAL3 TEMPAVG PRESSURE GPRESSURE VOLUME PRESSAVG GPRESSAVG
ENERGY: 20000 18.7141 57.9978 31.3037 4.0172 72.1672 -11.5002 0.0000 0.0000 84.8184 257.5182 329.5950 172.6998 258.4009 329.5950 0.3726 0.3817 8000000.0000 0.3726 0.3817
ENERGY: 21000 17.4592 57.9084 29.3342 4.4602 71.5310 -17.5127 0.0000 0.0000 74.8098 237.9901 290.7027 163.1803 238.5885 298.1954 0.5482 0.5452 8000000.0000 -0.0060 -0.0058
ENERGY: 22000 17.0919 58.5347 29.8136 6.2876 66.1483 -18.3652 0.0000 0.0000 87.1011 246.6120 338.4652 159.5109 247.4951 304.3546 0.2976 0.2832 8000000.0000 0.0238 0.0241
TCL: REPLICA_SHARED_ABF
TCL: REP_BIN REP 2 BIN 27 LASTCOUNT 1909 COUNT0 2879 COUNT 2879
TCL: REPLICA_SRC_DEST_EMPTY
TCL: CYCLE 11
TCL: Running for 2000 steps
ETITLE: TS BOND ANGLE DIHED IMPRP ELECT VDW BOUNDARY MISC KINETIC TOTAL TEMP POTENTIAL TOTAL3 TEMPAVG PRESSURE GPRESSURE VOLUME PRESSAVG GPRESSAVG
ENERGY: 22000 17.0919 58.5347 29.8136 6.2876 66.1483 -18.3652 0.0000 0.0000 87.0994 246.6103 338.4588 159.5109 247.7349 338.4588 0.3000 0.2809 8000000.0000 0.3000 0.2809
ENERGY: 23000 26.5604 66.3840 33.2952 2.9718 60.3302 -10.0946 0.0000 0.0000 79.7930 259.2400 310.0670 179.4470 260.5122 315.5775 -0.1034 -0.1257 8000000.0000 -0.0140 -0.0140
ENERGY: 24000 25.0557 64.9179 31.0791 5.8143 62.5067 -17.3658 0.0000 0.0000 72.7493 244.7573 282.6957 172.0081 245.4393 332.2259 -1.9259 -1.9275 8000000.0000 0.0145 0.0147
TCL: REPLICA_SHARED_ABF
TCL: CYCLE 12
TCL: Running for 2000 steps
ETITLE: TS BOND ANGLE DIHED IMPRP ELECT VDW BOUNDARY MISC KINETIC TOTAL TEMP POTENTIAL TOTAL3 TEMPAVG PRESSURE GPRESSURE VOLUME PRESSAVG GPRESSAVG
ENERGY: 24000 25.0557 64.9179 31.0791 5.8143 62.5067 -17.3658 0.0000 0.0000 72.7489 244.7570 282.6944 172.0081 245.6736 282.6944 -1.9226 -1.9288 8000000.0000 -1.9226 -1.9288
ENERGY: 25000 17.2252 66.3973 28.4015 2.3479 59.2558 -15.0824 0.0000 0.0000 82.1632 240.7085 319.2771 158.5453 241.3875 299.7211 0.2095 0.2061 8000000.0000 -0.0140 -0.0141
ENERGY: 26000 17.4048 66.6114 34.8942 2.4639 59.8888 -14.0537 0.0000 0.0000 69.1303 236.3396 268.6327 167.2093 236.9967 300.5228 0.2195 0.2309 8000000.0000 0.0101 0.0101
TCL: REPLICA_SHARED_ABF
TCL: CYCLE 13
TCL: Running for 2000 steps
ETITLE: TS BOND ANGLE DIHED IMPRP ELECT VDW BOUNDARY MISC KINETIC TOTAL TEMP POTENTIAL TOTAL3 TEMPAVG PRESSURE GPRESSURE VOLUME PRESSAVG GPRESSAVG
ENERGY: 26000 17.4048 66.6114 34.8942 2.4639 59.8888 -14.0537 0.0000 0.0000 69.1288 236.3382 268.6272 167.2093 237.1411 268.6272 0.2143 0.2294 8000000.0000 0.2143 0.2294
ENERGY: 27000 19.8986 64.0428 29.1250 5.6614 59.3667 -15.8605 0.0000 0.0000 85.8515 248.0855 333.6096 162.2340 249.0203 309.2409 -0.6062 -0.6199 8000000.0000 0.0083 0.0082
ENERGY: 28000 22.7029 60.4778 28.2381 2.6276 61.0966 -7.0473 0.0000 0.0000 75.5726 243.6683 293.6669 168.0957 244.6653 314.3901 1.1872 1.1815 8000000.0000 -0.0139 -0.0135
TCL: REPLICA_SHARED_ABF
TCL: CYCLE 14
TCL: Running for 2000 steps
ETITLE: TS BOND ANGLE DIHED IMPRP ELECT VDW BOUNDARY MISC KINETIC TOTAL TEMP POTENTIAL TOTAL3 TEMPAVG PRESSURE GPRESSURE VOLUME PRESSAVG GPRESSAVG
ENERGY: 28000 22.7029 60.4778 28.2381 2.6276 61.0966 -7.0473 0.0000 0.0000 75.5718 243.6674 293.6636 168.0957 244.6486 293.6636 1.1853 1.1869 8000000.0000 1.1853 1.1869
ENERGY: 29000 23.8575 60.4228 28.0158 2.8217 57.0282 -3.7396 0.0000 0.0000 90.5549 258.9615 351.8864 168.4066 260.1046 303.4168 0.3404 0.3642 8000000.0000 0.0081 0.0078
ENERGY: 30000 22.0586 68.9955 33.2605 2.1267 65.2432 -16.8935 0.0000 0.0000 83.8905 258.6816 325.9895 174.7911 259.6967 326.7755 0.9874 0.9904 8000000.0000 -0.0046 -0.0048
TCL: REPLICA_SHARED_ABF
TCL: CYCLE 15
TCL: Running for 2000 steps
ETITLE: TS BOND ANGLE DIHED IMPRP ELECT VDW BOUNDARY MISC KINETIC TOTAL TEMP POTENTIAL TOTAL3 TEMPAVG PRESSURE GPRESSURE VOLUME PRESSAVG GPRESSAVG
ENERGY: 30000 22.0586 68.9955 33.2605 2.1267 65.2432 -16.8935 0.0000 0.0000 83.8887 258.6798 325.9824 174.7911 259.5152 325.9824 0.9659 0.9753 8000000.0000 0.9659 0.9753
ENERGY: 31000 21.5117 55.8442 32.6111 3.5608 76.6393 -20.1663 0.0000 0.0000 78.3475 248.3483 304.4497 170.0009 249.6344 306.9271 0.4464 0.4357 8000000.0000 0.0110 0.0105
ENERGY: 32000 20.1507 65.7287 27.9282 4.2465 63.6720 -18.8451 0.0000 0.0000 70.3895 233.2705 273.5258 162.8811 233.7802 285.5517 -0.3086 -0.3123 8000000.0000 0.0169 0.0169
TCL: REPLICA_SHARED_ABF
TCL: REP_BIN REP 2 BIN 13 LASTCOUNT 1415 COUNT0 4338 COUNT 4338
TCL: REPLICA_SRC_DEST_EMPTY
TCL: CYCLE 16
TCL: Running for 2000 steps
ETITLE: TS BOND ANGLE DIHED IMPRP ELECT VDW BOUNDARY MISC KINETIC TOTAL TEMP POTENTIAL TOTAL3 TEMPAVG PRESSURE GPRESSURE VOLUME PRESSAVG GPRESSAVG
ENERGY: 32000 20.1507 65.7287 27.9282 4.2465 63.6720 -18.8451 0.0000 0.0000 70.3883 233.2693 273.5212 162.8811 233.9511 273.5212 -0.3107 -0.3131 8000000.0000 -0.3107 -0.3131
ENERGY: 33000 23.4910 52.4425 28.8211 2.3485 60.1411 -15.4188 0.0000 0.0000 75.1469 226.9723 292.0128 151.8253 227.7928 285.5519 0.4130 0.4185 8000000.0000 0.0036 0.0037
ENERGY: 34000 22.1925 69.5629 29.5586 4.6892 67.0753 -13.1860 0.0000 0.0000 60.2852 240.1777 234.2617 179.8925 240.9450 286.6733 -0.5944 -0.5999 8000000.0000 -0.0159 -0.0160
TCL: REPLICA_SHARED_ABF
TCL: CYCLE 17
TCL: Running for 2000 steps
ETITLE: TS BOND ANGLE DIHED IMPRP ELECT VDW BOUNDARY MISC KINETIC TOTAL TEMP POTENTIAL TOTAL3 TEMPAVG PRESSURE GPRESSURE VOLUME PRESSAVG GPRESSAVG
ENERGY: 34000 22.1925 69.5629 29.5586 4.6892 67.0753 -13.1860 0.0000 0.0000 60.2840 240.1765 234.2569 179.8925 240.5454 234.2569 -0.6062 -0.5980 8000000.0000 -0.6062 -0.5980
ENERGY: 35000 26.0998 61.4549 32.7133 5.9604 68.1140 -17.7866 0.0000 0.0000 72.9763 249.5322 283.5781 176.5559 249.7280 302.1991 -1.2508 -1.2332 8000000.0000 0.0182 0.0182
ENERGY: 36000 17.2727 58.8296 30.1327 4.6681 66.9246 -18.2436 0.0000 0.0000 75.5283 235.1123 293.4948 159.5840 236.4536 290.8836 -0.6646 -0.6821 8000000.0000 0.0179 0.0181
TCL: REPLICA_SHARED_ABF
TCL: CYCLE 18
TCL: Running for 2000 steps
ETITLE: TS BOND ANGLE DIHED IMPRP ELECT VDW BOUNDARY MISC KINETIC TOTAL TEMP POTENTIAL TOTAL3 TEMPAVG PRESSURE GPRESSURE VOLUME PRESSAVG GPRESSAVG
ENERGY: 36000 17.2727 58.8296 30.1327 4.6681 66.9246 -18.2436 0.0000 0.0000 75.5281 235.1121 293.4940 159.5840 236.5423 293.4940 -0.6727 -0.6828 8000000.0000 -0.6727 -0.6828
ENERGY: 37000 21.7299 61.6862 25.8197 1.6857 58.5499 -12.5999 0.0000 0.0000 85.7665 242.6380 333.2792 156.8716 243.7914 297.1589 0.4654 0.4894 8000000.0000 0.0062 0.0062
ENERGY: 38000 26.8017 65.0186 31.3487 3.7098 59.2638 -18.4888 0.0000 0.0000 72.9849 240.6387 283.6112 167.6539 241.5342 293.6558 -0.6282 -0.6420 8000000.0000 -0.0074 -0.0077
TCL: REPLICA_SHARED_ABF
TCL: CYCLE 19
TCL: Running for 2000 steps
ETITLE: TS BOND ANGLE DIHED IMPRP ELECT VDW BOUNDARY MISC KINETIC TOTAL TEMP POTENTIAL TOTAL3 TEMPAVG PRESSURE GPRESSURE VOLUME PRESSAVG GPRESSAVG
ENERGY: 38000 26.8017 65.0186 31.3487 3.7098 59.2638 -18.4888 0.0000 0.0000 72.9838 240.6377 283.6073 167.6539 241.5642 283.6073 -0.6243 -0.6428 8000000.0000 -0.6243 -0.6428
ENERGY: 39000 22.9102 56.9287 31.7383 4.5702 62.1044 -13.4619 0.0000 0.0000 68.5851 233.3749 266.5140 164.7898 234.6225 297.6833 -0.4436 -0.4326 8000000.0000 0.0268 0.0269
ENERGY: 40000 20.3982 58.6490 30.7814 4.5788 58.1012 -14.9050 0.0000 0.0000 72.8732 230.4768 283.1772 157.6036 231.3627 282.5540 -0.4273 -0.4451 8000000.0000 -0.0268 -0.0268
TCL: REPLICA_SHARED_ABF
