Info: SIMULATION PARAMETERS:
Info: TIMESTEP               2
Info: NUMBER OF STEPS        40000
Info: STEPS PER CYCLE        10
Info: PERIODIC CELL BASIS 1  200 0 0
Info: PERIODIC CELL BASIS 2  0 200 0
Info: PERIODIC CELL BASIS 3  0 0 200
Info: PERIODIC CELL CENTER   0 0 0
Info: WRAPPING ALL CLUSTERS AROUND PERIODIC BOUNDARIES ON OUTPUT.
Info: WRAPPING TO IMAGE NEAREST TO PERIODIC CELL CENTER.
Info: FIRST LDB TIMESTEP     50
Info: LAST LDB TIMESTEP     -1
Info: HOM BACKGROUND SCALING 1
Info: MIN ATOMS PER PATCH    40
Info: INITIAL TEMPERATURE    300
Info: CENTER OF MASS MOVING INITIALLY? YES
Info: DIELECTRIC             1
Info: EXCLUDE                SCALED ONE-FOUR
Info: 1-4 ELECTROSTATICS SCALED BY 1
Info: MODIFIED 1-4 VDW PARAMETERS WILL BE USED
Info: DCD FILENAME           out_mw_independent.1.dcd
Info: DCD FREQUENCY          5000
Info: DCD FIRST STEP         5000
Info: DCD FILE WILL CONTAIN UNIT CELL DATA
Info: NO EXTENDED SYSTEM TRAJECTORY OUTPUT
Info: NO VELOCITY DCD OUTPUT
Info: NO FORCE DCD OUTPUT
Info: OUTPUT FILENAME        out_mw_independent.1
Info: BINARY OUTPUT FILES WILL BE USED
Info: RESTART FILENAME       out_mw_independent.1.restart
Info: RESTART FREQUENCY      5000
Info: BINARY RESTART FILES WILL BE USED
Info: SWITCHING ACTIVE
Info: SWITCHING ON           10
Info: SWITCHING OFF          12
Info: PAIRLIST DISTANCE      14
Info: PAIRLIST SHRINK RATE   0.01
Info: PAIRLIST GROW RATE     0.01
Info: PAIRLIST TRIGGER       0.3
Info: PAIRLISTS PER CYCLE    2
Info: PAIRLISTS ENABLED
Info: MARGIN                 0
Info: HYDROGEN GROUP CUTOFF  2.5
Info: PATCH DIMENSION        16.5
Info: ENERGY OUTPUT STEPS    1000
Info: CROSSTERM ENERGY INCLUDED IN DIHEDRAL
Info: TIMING OUTPUT STEPS    1000
Info: PRESSURE OUTPUT STEPS  1000
Info: COLLECTIVE VARIABLES CALCULATION REQUESTED
Info: COLLECTIVE VARIABLES CONFIGURATION   abf_12-15_less.colvars
Info: LANGEVIN DYNAMICS ACTIVE
Info: LANGEVIN TEMPERATURE   300
Info: LANGEVIN USING BBK INTEGRATOR
Info: LANGEVIN DAMPING COEFFICIENT IS 1 INVERSE PS
Info: LANGEVIN DYNAMICS NOT APPLIED TO HYDROGENS
Info: USING VERLET I (r-RESPA) MTS SCHEME.
Info: C1 SPLITTING OF LONG RANGE ELECTROSTATICS
Info: PLACING ATOMS IN PATCHES BY HYDROGEN GROUPS
Info: RIGID BONDS TO HYDROGEN : ALL
Info:         ERROR TOLERANCE : 1e-08
Info:          MAX ITERATIONS : 100
Info: RIGID WATER USING SETTLE ALGORITHM
Info: RANDOM NUMBER SEED     102180
Info: USE HYDROGEN BONDS?    NO
Info: COORDINATE PDB         ../Common/da.pdb
Info: STRUCTURE FILE         ../Common/da.psf
Info: PARAMETER file: CHARMM format!
Info: PARAMETERS             ../Common/par_all22_prot.inp
Info: USING ARITHMETIC MEAN TO COMBINE L-J SIGMA PARAMETERS
Info: SUMMARY OF PARAMETERS:
Info: 140 BONDS
Info: 356 ANGLES
Info: 459 DIHEDRAL
Info: 43 IMPROPER
Info: 6 CROSSTERM
Info: 95 VDW
Info: 0 VDW_PAIRS
Info: 0 NBTHOLE_PAIRS
Info: STRUCTURE SUMMARY:
Info: 104 ATOMS
Info: 103 BONDS
Info: 183 ANGLES
Info: 251 DIHEDRALS
Info: 22 IMPROPERS
Info: 0 CROSSTERMS
Info: 0 EXCLUSIONS
Info: 53 RIGID BONDS
Info: 259 DEGREES OF FREEDOM
Info: 51 HYDROGEN GROUPS
Info: 4 ATOMS IN LARGEST HYDROGEN GROUP
Info: 51 MIGRATION GROUPS
Info: 4 ATOMS IN LARGEST MIGRATION GROUP
Info: TOTAL MASS = 727.821 amu
Info: TOTAL CHARGE = 6.70552e-08 e
Info: MASS DENSITY = 0.000151075 g/cm^3
Info: ATOM DENSITY = 1.3e-05 atoms/A^3
Info: ADDED 536 IMPLICIT EXCLUSIONS
Info: NONBONDED TABLE R-SQUARED SPACING: 0.0625
Info: NONBONDED TABLE SIZE: 769 POINTS
ETITLE: TS BOND ANGLE DIHED IMPRP ELECT VDW BOUNDARY MISC KINETIC TOTAL TEMP POTENTIAL TOTAL3 TEMPAVG PRESSURE GPRESSURE VOLUME PRESSAVG GPRESSAVG
ENERGY: 0 17.7438 62.9712 30.7069 8.3806 65.4362 -13.7483 0.0000 0.0000 77.0963 248.5867 299.5880 171.4904 249.5595 299.5880 0.2913 0.2960 8000000.0000 0.2913 0.2960
ENERGY: 8000 21.1044 60.1519 27.9527 5.6931 66.2632 -18.8960 0.0000 0.0000 80.2222 242.4914 311.7347 162.2692 243.4343 295.5759 -0.9169 -0.9080 8000000.0000 0.0090 0.0091
ENERGY: 16000 16.5698 64.5960 29.5834 4.4993 60.2428 -10.3698 0.0000 0.0000 79.6870 244.8086 309.6551 165.1216 246.0769 305.8365 0.2636 0.2529 8000000.0000 0.0184 0.0185
ENERGY: 24000 18.0386 63.9359 27.0126 2.6447 62.4503 -18.4315 0.0000 0.0000 87.0193 242.6699 338.1476 155.6506 243.7938 308.0918 0.3981 0.4170 8000000.0000 0.0074 0.0075
ENERGY: 32000 19.8724 54.0810 30.1782 4.3423 56.9616 -11.0546 0.0000 0.0000 80.7887 235.1695 313.9362 154.3807 236.4758 310.1922 0.1646 0.1382 8000000.0000 -0.0181 -0.0182
ENERGY: 40000 26.2245 53.8261 26.7962 3.6123 68.9909 -17.8840 0.0000 0.0000 70.3004 231.8664 273.1796 161.5660 233.1289 276.2660 -0.2023 -0.1840 8000000.0000 0.0090 0.0092
