Info: SIMULATION PARAMETERS:
Info: TIMESTEP               2
Info: NUMBER OF STEPS        40000
Info: STEPS PER CYCLE        10
Info: PERIODIC CELL BASIS 1  200 0 0
Info: PERIODIC CELL BASIS 2  0 200 0
Info: PERIODIC CELL BASIS 3  0 0 200
Info: PERIODIC CELL CENTER   0 0 0
Info: WRAPPING ALL CLUSTERS AROUND PERIODIC BOUNDARIES ON OUTPUT.
Info: WRAPPING TO IMAGE NEAREST TO PERIODIC CELL CENTER.
Info: FIRST LDB TIMESTEP     50
Info: LAST LDB TIMESTEP     -1
Info: HOM BACKGROUND SCALING 1
Info: MIN ATOMS PER PATCH    40
Info: INITIAL TEMPERATURE    300
Info: CENTER OF MASS MOVING INITIALLY? YES
Info: DIELECTRIC             1
Info: EXCLUDE                SCALED ONE-FOUR
Info: 1-4 ELECTROSTATICS SCALED BY 1
Info: MODIFIED 1-4 VDW PARAMETERS WILL BE USED
Info: DCD FILENAME           out_mw_shared.0.dcd
Info: DCD FREQUENCY          5000
Info: DCD FIRST STEP         5000
Info: DCD FILE WILL CONTAIN UNIT CELL DATA
Info: NO EXTENDED SYSTEM TRAJECTORY OUTPUT
Info: NO VELOCITY DCD OUTPUT
Info: NO FORCE DCD OUTPUT
Info: OUTPUT FILENAME        out_mw_shared.0
Info: BINARY OUTPUT FILES WILL BE USED
Info: RESTART FILENAME       out_mw_shared.0.restart
Info: RESTART FREQUENCY      5000
Info: BINARY RESTART FILES WILL BE USED
Info: SWITCHING ACTIVE
Info: SWITCHING ON           10
Info: SWITCHING OFF          12
Info: PAIRLIST DISTANCE      14
Info: PAIRLIST SHRINK RATE   0.01
Info: PAIRLIST GROW RATE     0.01
Info: PAIRLIST TRIGGER       0.3
Info: PAIRLISTS PER CYCLE    2
Info: PAIRLISTS ENABLED
Info: MARGIN                 0
Info: HYDROGEN GROUP CUTOFF  2.5
Info: PATCH DIMENSION        16.5
Info: ENERGY OUTPUT STEPS    1000
Info: CROSSTERM ENERGY INCLUDED IN DIHEDRAL
Info: TIMING OUTPUT STEPS    1000
Info: PRESSURE OUTPUT STEPS  1000
Info: COLLECTIVE VARIABLES CALCULATION REQUESTED
Info: COLLECTIVE VARIABLES CONFIGURATION   sabf_12-15_less.colvars
Info: LANGEVIN DYNAMICS ACTIVE
Info: LANGEVIN TEMPERATURE   300
Info: LANGEVIN USING BBK INTEGRATOR
Info: LANGEVIN DAMPING COEFFICIENT IS 1 INVERSE PS
Info: LANGEVIN DYNAMICS NOT APPLIED TO HYDROGENS
Info: USING VERLET I (r-RESPA) MTS SCHEME.
Info: C1 SPLITTING OF LONG RANGE ELECTROSTATICS
Info: PLACING ATOMS IN PATCHES BY HYDROGEN GROUPS
Info: RIGID BONDS TO HYDROGEN : ALL
Info:         ERROR TOLERANCE : 1e-08
Info:          MAX ITERATIONS : 100
Info: RIGID WATER USING SETTLE ALGORITHM
Info: RANDOM NUMBER SEED     99377
Info: USE HYDROGEN BONDS?    NO
Info: COORDINATE PDB         ../Common/da.pdb
Info: STRUCTURE FILE         ../Common/da.psf
Info: PARAMETER file: CHARMM format!
Info: PARAMETERS             ../Common/par_all22_prot.inp
Info: USING ARITHMETIC MEAN TO COMBINE L-J SIGMA PARAMETERS
Info: SUMMARY OF PARAMETERS:
Info: 140 BONDS
Info: 356 ANGLES
Info: 459 DIHEDRAL
Info: 43 IMPROPER
Info: 6 CROSSTERM
Info: 95 VDW
Info: 0 VDW_PAIRS
Info: 0 NBTHOLE_PAIRS
Info: STRUCTURE SUMMARY:
Info: 104 ATOMS
Info: 103 BONDS
Info: 183 ANGLES
Info: 251 DIHEDRALS
Info: 22 IMPROPERS
Info: 0 CROSSTERMS
Info: 0 EXCLUSIONS
Info: 53 RIGID BONDS
Info: 259 DEGREES OF FREEDOM
Info: 51 HYDROGEN GROUPS
Info: 4 ATOMS IN LARGEST HYDROGEN GROUP
Info: 51 MIGRATION GROUPS
Info: 4 ATOMS IN LARGEST MIGRATION GROUP
Info: TOTAL MASS = 727.821 amu
Info: TOTAL CHARGE = 6.70552e-08 e
Info: MASS DENSITY = 0.000151075 g/cm^3
Info: ATOM DENSITY = 1.3e-05 atoms/A^3
Info: ADDED 536 IMPLICIT EXCLUSIONS
Info: NONBONDED TABLE R-SQUARED SPACING: 0.0625
Info: NONBONDED TABLE SIZE: 769 POINTS
ETITLE: TS BOND ANGLE DIHED IMPRP ELECT VDW BOUNDARY MISC KINETIC TOTAL TEMP POTENTIAL TOTAL3 TEMPAVG PRESSURE GPRESSURE VOLUME PRESSAVG GPRESSAVG
ENERGY: 0 17.7438 62.9712 30.7069 8.3806 65.4362 -13.7483 0.0000 0.0000 75.7397 247.2301 294.3164 171.4904 248.2025 294.3164 0.2976 0.3028 8000000.0000 0.2976 0.3028
ENERGY: 8000 22.8136 60.0838 27.1797 3.8292 63.0691 -12.3764 0.0000 0.0000 71.6151 236.2141 278.2884 164.5990 237.0225 275.2629 0.0985 0.0993 8000000.0000 0.0033 0.0034
ENERGY: 16000 17.4969 57.1781 34.5202 3.5854 55.4999 -14.1570 0.0000 0.0000 72.1865 226.3099 280.5090 154.1234 227.0361 276.7627 -0.6098 -0.6368 8000000.0000 0.0050 0.0048
ENERGY: 24000 25.4060 57.8968 30.2989 5.7880 57.6308 -15.9744 0.0000 0.0000 72.1148 233.1610 280.2303 161.0462 233.9172 275.5840 0.3350 0.3202 8000000.0000 0.0304 0.0307
ENERGY: 32000 16.8923 65.6325 26.1668 2.7108 69.2314 -15.0721 0.0000 0.0000 70.4068 235.9685 273.5933 165.5616 236.9104 286.9409 0.7713 0.7812 8000000.0000 -0.0028 -0.0029
ENERGY: 40000 26.4163 44.6110 26.8150 4.1803 63.3268 -14.5858 0.0000 0.0000 90.3869 241.1506 351.2337 150.7637 242.7018 289.8492 -1.4035 -1.4005 8000000.0000 -0.0138 -0.0139
