Info: SIMULATION PARAMETERS:
Info: TIMESTEP               2
Info: NUMBER OF STEPS        0
Info: STEPS PER CYCLE        10
Info: PERIODIC CELL BASIS 1  200 0 0
Info: PERIODIC CELL BASIS 2  0 200 0
Info: PERIODIC CELL BASIS 3  0 0 200
Info: PERIODIC CELL CENTER   0 0 0
Info: WRAPPING ALL CLUSTERS AROUND PERIODIC BOUNDARIES ON OUTPUT.
Info: WRAPPING TO IMAGE NEAREST TO PERIODIC CELL CENTER.
Info: FIRST LDB TIMESTEP     50
Info: LAST LDB TIMESTEP     -1
Info: HOM BACKGROUND SCALING 1
Info: MIN ATOMS PER PATCH    40
Info: INITIAL TEMPERATURE    300
Info: CENTER OF MASS MOVING INITIALLY? YES
Info: DIELECTRIC             1
Info: EXCLUDE                SCALED ONE-FOUR
Info: 1-4 ELECTROSTATICS SCALED BY 1
Info: MODIFIED 1-4 VDW PARAMETERS WILL BE USED
Info: DCD FILENAME           out_mw_selection.3.dcd
Info: DCD FREQUENCY          5000
Info: DCD FIRST STEP         5000
Info: DCD FILE WILL CONTAIN UNIT CELL DATA
Info: NO EXTENDED SYSTEM TRAJECTORY OUTPUT
Info: NO VELOCITY DCD OUTPUT
Info: NO FORCE DCD OUTPUT
Info: OUTPUT FILENAME        out_mw_selection.3
Info: BINARY OUTPUT FILES WILL BE USED
Info: RESTART FILENAME       out_mw_selection.3.restart
Info: RESTART FREQUENCY      5000
Info: BINARY RESTART FILES WILL BE USED
Info: SWITCHING ACTIVE
Info: SWITCHING ON           10
Info: SWITCHING OFF          12
Info: PAIRLIST DISTANCE      14
Info: PAIRLIST SHRINK RATE   0.01
Info: PAIRLIST GROW RATE     0.01
Info: PAIRLIST TRIGGER       0.3
Info: PAIRLISTS PER CYCLE    2
Info: PAIRLISTS ENABLED
Info: MARGIN                 0
Info: HYDROGEN GROUP CUTOFF  2.5
Info: PATCH DIMENSION        16.5
Info: ENERGY OUTPUT STEPS    1000
Info: CROSSTERM ENERGY INCLUDED IN DIHEDRAL
Info: TIMING OUTPUT STEPS    1000
Info: COLLECTIVE VARIABLES CALCULATION REQUESTED
Info: COLLECTIVE VARIABLES CONFIGURATION   abf_12-15_less.colvars
Info: LANGEVIN DYNAMICS ACTIVE
Info: LANGEVIN TEMPERATURE   300
Info: LANGEVIN USING BBK INTEGRATOR
Info: LANGEVIN DAMPING COEFFICIENT IS 1 INVERSE PS
Info: LANGEVIN DYNAMICS NOT APPLIED TO HYDROGENS
Info: USING VERLET I (r-RESPA) MTS SCHEME.
Info: C1 SPLITTING OF LONG RANGE ELECTROSTATICS
Info: PLACING ATOMS IN PATCHES BY HYDROGEN GROUPS
Info: RIGID BONDS TO HYDROGEN : ALL
Info:         ERROR TOLERANCE : 1e-08
Info:          MAX ITERATIONS : 100
Info: RIGID WATER USING SETTLE ALGORITHM
Info: RANDOM NUMBER SEED     566510
Info: USE HYDROGEN BONDS?    NO
Info: COORDINATE PDB         ../Common/da.min.pdb
Info: STRUCTURE FILE         ../Common/da.psf
Info: PARAMETER file: CHARMM format!
Info: PARAMETERS             ../Common/par_all22_prot.inp
Info: USING ARITHMETIC MEAN TO COMBINE L-J SIGMA PARAMETERS
Info: SUMMARY OF PARAMETERS:
Info: 140 BONDS
Info: 356 ANGLES
Info: 459 DIHEDRAL
Info: 43 IMPROPER
Info: 6 CROSSTERM
Info: 95 VDW
Info: 0 VDW_PAIRS
Info: 0 NBTHOLE_PAIRS
Info: STRUCTURE SUMMARY:
Info: 104 ATOMS
Info: 103 BONDS
Info: 183 ANGLES
Info: 251 DIHEDRALS
Info: 22 IMPROPERS
Info: 0 CROSSTERMS
Info: 0 EXCLUSIONS
Info: 53 RIGID BONDS
Info: 259 DEGREES OF FREEDOM
Info: 51 HYDROGEN GROUPS
Info: 4 ATOMS IN LARGEST HYDROGEN GROUP
Info: 51 MIGRATION GROUPS
Info: 4 ATOMS IN LARGEST MIGRATION GROUP
Info: TOTAL MASS = 727.821 amu
Info: TOTAL CHARGE = 6.70552e-08 e
Info: MASS DENSITY = 0.000151075 g/cm^3
Info: ATOM DENSITY = 1.3e-05 atoms/A^3
Info: ADDED 536 IMPLICIT EXCLUSIONS
Info: NONBONDED TABLE R-SQUARED SPACING: 0.0625
Info: NONBONDED TABLE SIZE: 769 POINTS
TCL: REPLICA_SETUP cycleNum 20 shareFreq 2000 selectCycle 5 repNum 4 rep 3 sampleRad 0 binNum 30 percentStop 40
TCL: CYCLE 0
TCL: Running for 2000 steps
ETITLE: TS BOND ANGLE DIHED IMPRP ELECT VDW BOUNDARY MISC KINETIC TOTAL TEMP POTENTIAL TOTAL3 TEMPAVG PRESSURE GPRESSURE VOLUME PRESSAVG GPRESSAVG
ENERGY: 0 5.0522 19.3821 21.8852 0.4839 58.7580 -19.9253 0.0000 0.0000 80.2467 165.8828 311.8298 85.6361 165.8931 311.8298 0.2261 0.2309 8000000.0000 0.2261 0.2309
ENERGY: 1000 19.8805 49.2319 28.5794 3.0126 63.0060 -20.1846 0.0000 0.0000 63.7211 207.2468 247.6132 143.5257 207.9642 201.8088 -0.0213 -0.0242 8000000.0000 -0.0099 -0.0099
ENERGY: 2000 19.1146 64.1559 29.3987 2.8204 61.2334 -13.3542 0.0000 0.0000 87.2142 250.5830 338.9048 163.3688 251.0498 280.6800 -0.2429 -0.2106 8000000.0000 0.0160 0.0160
TCL: REPLICA_SHARED_ABF
TCL: REP_BIN REP 3 BIN 28 LASTCOUNT 0 COUNT0 186 COUNT 186
TCL: REPLICA_SRC_DEST_LIST {3 2}
TCL: REPLICA_BARRIER
TCL: REPLICA_ATOM_SEND 2
TCL: CYCLE 1
TCL: Running for 2000 steps
ETITLE: TS BOND ANGLE DIHED IMPRP ELECT VDW BOUNDARY MISC KINETIC TOTAL TEMP POTENTIAL TOTAL3 TEMPAVG PRESSURE GPRESSURE VOLUME PRESSAVG GPRESSAVG
ENERGY: 2000 19.1146 64.1559 29.3987 2.8204 61.2334 -13.3542 0.0000 0.0000 87.2127 250.5815 338.8992 163.3688 251.3567 338.8992 -0.2440 -0.2122 8000000.0000 -0.2440 -0.2122
ENERGY: 3000 21.9317 63.8925 28.1565 4.3772 61.5209 -14.2284 0.0000 0.0000 83.5355 249.1859 324.6099 165.6504 249.8885 320.9832 1.1606 1.1549 8000000.0000 -0.0207 -0.0206
ENERGY: 4000 13.6264 59.0350 31.7306 4.1885 61.5355 -13.3331 0.0000 0.0000 81.5967 238.3796 317.0757 156.7829 239.6436 300.1328 0.0370 0.0417 8000000.0000 0.0183 0.0184
TCL: REPLICA_SHARED_ABF
TCL: CYCLE 2
TCL: Running for 2000 steps
ETITLE: TS BOND ANGLE DIHED IMPRP ELECT VDW BOUNDARY MISC KINETIC TOTAL TEMP POTENTIAL TOTAL3 TEMPAVG PRESSURE GPRESSURE VOLUME PRESSAVG GPRESSAVG
ENERGY: 4000 13.6264 59.0350 31.7306 4.1885 61.5355 -13.3331 0.0000 0.0000 81.5952 238.3782 317.0702 156.7829 239.3458 317.0702 0.0177 0.0208 8000000.0000 0.0177 0.0208
ENERGY: 5000 28.0922 56.8286 31.2815 4.7244 66.4305 -19.0965 0.0000 0.0000 88.0668 256.3275 342.2178 168.2608 257.5793 300.2091 -0.5954 -0.5917 8000000.0000 -0.0223 -0.0222
ENERGY: 6000 32.4549 64.7879 28.6731 6.0459 64.2726 -14.0000 0.0000 0.0000 89.0678 271.3022 346.1078 182.2344 272.6357 334.6755 -1.0712 -1.0576 8000000.0000 0.0309 0.0310
TCL: REPLICA_SHARED_ABF
TCL: CYCLE 3
TCL: Running for 2000 steps
ETITLE: TS BOND ANGLE DIHED IMPRP ELECT VDW BOUNDARY MISC KINETIC TOTAL TEMP POTENTIAL TOTAL3 TEMPAVG PRESSURE GPRESSURE VOLUME PRESSAVG GPRESSAVG
ENERGY: 6000 32.4549 64.7879 28.6731 6.0459 64.2726 -14.0000 0.0000 0.0000 89.0675 271.3019 346.1067 182.2344 272.4494 346.1067 -1.0596 -1.0563 8000000.0000 -1.0596 -1.0563
ENERGY: 7000 15.8199 65.8820 30.8907 3.3472 61.0447 -13.8893 0.0000 0.0000 76.4808 239.5759 297.1961 163.0951 240.6386 322.3976 -0.2873 -0.2717 8000000.0000 0.0027 0.0028
ENERGY: 8000 25.6914 64.8835 27.6570 6.2034 69.3764 -18.0798 0.0000 0.0000 79.2815 255.0135 308.0793 175.7320 256.3636 302.0549 -0.3722 -0.3758 8000000.0000 0.0133 0.0134
TCL: REPLICA_SHARED_ABF
TCL: CYCLE 4
TCL: Running for 2000 steps
ETITLE: TS BOND ANGLE DIHED IMPRP ELECT VDW BOUNDARY MISC KINETIC TOTAL TEMP POTENTIAL TOTAL3 TEMPAVG PRESSURE GPRESSURE VOLUME PRESSAVG GPRESSAVG
ENERGY: 8000 25.6914 64.8835 27.6570 6.2034 69.3764 -18.0798 0.0000 0.0000 79.2807 255.0127 308.0763 175.7320 256.0235 308.0763 -0.3583 -0.3631 8000000.0000 -0.3583 -0.3631
ENERGY: 9000 16.3169 65.9527 28.1403 3.2738 63.9505 -13.0269 0.0000 0.0000 76.4861 241.0936 297.2167 164.6074 241.8798 321.4027 1.1597 1.1515 8000000.0000 -0.0107 -0.0111
ENERGY: 10000 21.5468 66.9495 29.1267 4.3259 58.3174 -18.2926 0.0000 0.0000 83.1488 245.1226 323.1073 161.9738 246.0026 318.6783 -0.9487 -0.9623 8000000.0000 -0.0065 -0.0063
TCL: REPLICA_SHARED_ABF
TCL: CYCLE 5
TCL: Running for 2000 steps
ETITLE: TS BOND ANGLE DIHED IMPRP ELECT VDW BOUNDARY MISC KINETIC TOTAL TEMP POTENTIAL TOTAL3 TEMPAVG PRESSURE GPRESSURE VOLUME PRESSAVG GPRESSAVG
ENERGY: 10000 21.5468 66.9495 29.1267 4.3259 58.3174 -18.2926 0.0000 0.0000 83.1473 245.1211 323.1014 161.9738 246.1740 323.1014 -0.9706 -0.9832 8000000.0000 -0.9706 -0.9832
ENERGY: 11000 18.2614 61.4230 25.4712 3.3674 64.9778 -17.1412 0.0000 0.0000 87.5662 243.9257 340.2729 156.3595 245.3803 319.4798 0.1076 0.1107 8000000.0000 -0.0404 -0.0404
ENERGY: 12000 22.4219 59.6276 29.5573 2.9762 65.1819 -17.5601 0.0000 0.0000 93.1093 255.3140 361.8124 162.2048 257.0254 315.2406 -0.0573 -0.0721 8000000.0000 0.0262 0.0262
TCL: REPLICA_SHARED_ABF
TCL: REP_BIN REP 3 BIN 6 LASTCOUNT 0 COUNT0 652 COUNT 652
TCL: REPLICA_SRC_DEST_LIST {3 2}
TCL: REPLICA_BARRIER
TCL: REPLICA_ATOM_SEND 2
TCL: CYCLE 6
TCL: Running for 2000 steps
ETITLE: TS BOND ANGLE DIHED IMPRP ELECT VDW BOUNDARY MISC KINETIC TOTAL TEMP POTENTIAL TOTAL3 TEMPAVG PRESSURE GPRESSURE VOLUME PRESSAVG GPRESSAVG
ENERGY: 12000 22.4219 59.6276 29.5573 2.9762 65.1819 -17.5601 0.0000 0.0000 93.1080 255.3128 361.8077 162.2048 256.6473 361.8077 -0.0623 -0.0721 8000000.0000 -0.0623 -0.0721
ENERGY: 13000 35.0639 52.1691 29.4229 1.9920 68.1517 -16.3808 0.0000 0.0000 66.8510 237.2698 259.7755 170.4189 238.3675 290.3270 -2.0429 -2.0380 8000000.0000 0.0303 0.0304
ENERGY: 14000 24.4180 57.1473 30.1662 4.7388 63.1686 -22.3403 0.0000 0.0000 79.5853 236.8839 309.2599 157.2986 237.4622 287.7138 -1.7231 -1.7061 8000000.0000 0.0120 0.0119
TCL: REPLICA_SHARED_ABF
TCL: CYCLE 7
TCL: Running for 2000 steps
ETITLE: TS BOND ANGLE DIHED IMPRP ELECT VDW BOUNDARY MISC KINETIC TOTAL TEMP POTENTIAL TOTAL3 TEMPAVG PRESSURE GPRESSURE VOLUME PRESSAVG GPRESSAVG
ENERGY: 14000 24.4180 57.1473 30.1662 4.7388 63.1686 -22.3403 0.0000 0.0000 79.5841 236.8827 309.2550 157.2986 237.5840 309.2550 -1.7321 -1.7177 8000000.0000 -1.7321 -1.7177
ENERGY: 15000 24.5191 55.8445 25.6349 3.3970 60.4235 -11.1246 0.0000 0.0000 68.9740 227.6683 268.0256 158.6942 229.2513 290.2484 0.5063 0.5103 8000000.0000 0.0054 0.0053
ENERGY: 16000 24.0596 55.7600 30.8953 4.0289 59.6185 -17.2910 0.0000 0.0000 86.3813 243.4526 335.6682 157.0714 244.6969 302.7366 0.5552 0.5358 8000000.0000 -0.0030 -0.0031
TCL: REPLICA_SHARED_ABF
TCL: CYCLE 8
TCL: Running for 2000 steps
ETITLE: TS BOND ANGLE DIHED IMPRP ELECT VDW BOUNDARY MISC KINETIC TOTAL TEMP POTENTIAL TOTAL3 TEMPAVG PRESSURE GPRESSURE VOLUME PRESSAVG GPRESSAVG
ENERGY: 16000 24.0596 55.7600 30.8953 4.0289 59.6185 -17.2910 0.0000 0.0000 86.3795 243.4509 335.6615 157.0714 244.7179 335.6615 0.5420 0.5271 8000000.0000 0.5420 0.5271
ENERGY: 17000 15.6459 53.4610 31.2397 5.0440 69.4696 -8.3061 0.0000 0.0000 80.3588 246.9128 312.2654 166.5541 248.0325 304.5427 1.2138 1.2039 8000000.0000 -0.0152 -0.0150
ENERGY: 18000 20.9885 49.1571 28.0898 2.5168 59.8718 -5.2589 0.0000 0.0000 73.7573 229.1223 286.6127 155.3650 230.2134 289.3333 -0.3801 -0.3726 8000000.0000 0.0073 0.0070
TCL: REPLICA_SHARED_ABF
TCL: CYCLE 9
TCL: Running for 2000 steps
ETITLE: TS BOND ANGLE DIHED IMPRP ELECT VDW BOUNDARY MISC KINETIC TOTAL TEMP POTENTIAL TOTAL3 TEMPAVG PRESSURE GPRESSURE VOLUME PRESSAVG GPRESSAVG
ENERGY: 18000 20.9885 49.1571 28.0898 2.5168 59.8718 -5.2589 0.0000 0.0000 73.7562 229.1212 286.6085 155.3650 229.8973 286.6085 -0.3783 -0.3757 8000000.0000 -0.3783 -0.3757
ENERGY: 19000 24.6093 66.0046 32.3457 2.1258 56.9485 -10.1111 0.0000 0.0000 70.4503 242.3732 273.7622 171.9229 243.3091 287.3756 -1.1058 -1.0834 8000000.0000 0.0272 0.0271
ENERGY: 20000 19.9303 61.3453 27.7924 2.5400 57.8139 -17.1603 0.0000 0.0000 62.9882 215.2497 244.7652 152.2616 216.0045 275.5601 0.4609 0.4636 8000000.0000 0.0013 0.0013
TCL: REPLICA_SHARED_ABF
TCL: CYCLE 10
TCL: Running for 2000 steps
ETITLE: TS BOND ANGLE DIHED IMPRP ELECT VDW BOUNDARY MISC KINETIC TOTAL TEMP POTENTIAL TOTAL3 TEMPAVG PRESSURE GPRESSURE VOLUME PRESSAVG GPRESSAVG
ENERGY: 20000 19.9303 61.3453 27.7924 2.5400 57.8139 -17.1603 0.0000 0.0000 62.9866 215.2482 244.7591 152.2616 216.2823 244.7591 0.4429 0.4491 8000000.0000 0.4429 0.4491
ENERGY: 21000 17.2032 49.7170 27.0301 3.4385 69.0445 -14.2780 0.0000 0.0000 63.4188 215.5741 246.4385 152.1553 215.9999 244.3263 0.0838 0.0830 8000000.0000 -0.0100 -0.0099
ENERGY: 22000 21.9978 70.5019 26.3000 4.8121 58.3678 -17.6501 0.0000 0.0000 67.9418 232.2713 264.0145 164.3295 232.8403 263.9947 -0.3955 -0.3907 8000000.0000 0.0011 0.0010
TCL: REPLICA_SHARED_ABF
TCL: REP_BIN REP 3 BIN 13 LASTCOUNT 1415 COUNT0 3146 COUNT 3146
TCL: REPLICA_SRC_DEST_EMPTY
TCL: CYCLE 11
TCL: Running for 2000 steps
ETITLE: TS BOND ANGLE DIHED IMPRP ELECT VDW BOUNDARY MISC KINETIC TOTAL TEMP POTENTIAL TOTAL3 TEMPAVG PRESSURE GPRESSURE VOLUME PRESSAVG GPRESSAVG
ENERGY: 22000 21.9978 70.5019 26.3000 4.8121 58.3678 -17.6501 0.0000 0.0000 67.9408 232.2703 264.0106 164.3295 232.8637 264.0106 -0.3906 -0.3839 8000000.0000 -0.3906 -0.3839
ENERGY: 23000 23.6700 57.5023 26.5278 2.6991 64.6046 -13.8908 0.0000 0.0000 74.7512 235.8642 290.4751 161.1130 236.8629 280.0825 -0.3311 -0.3529 8000000.0000 -0.0081 -0.0078
ENERGY: 24000 15.7692 60.8884 28.7667 3.6871 65.8552 -10.7012 0.0000 0.0000 69.9146 234.1801 271.6807 164.2655 234.6091 279.2056 0.0902 0.0893 8000000.0000 0.0257 0.0259
TCL: REPLICA_SHARED_ABF
TCL: CYCLE 12
TCL: Running for 2000 steps
ETITLE: TS BOND ANGLE DIHED IMPRP ELECT VDW BOUNDARY MISC KINETIC TOTAL TEMP POTENTIAL TOTAL3 TEMPAVG PRESSURE GPRESSURE VOLUME PRESSAVG GPRESSAVG
ENERGY: 24000 15.7692 60.8884 28.7667 3.6871 65.8552 -10.7012 0.0000 0.0000 69.9125 234.1780 271.6723 164.2655 234.7278 271.6723 0.0864 0.0852 8000000.0000 0.0864 0.0852
ENERGY: 25000 23.5204 65.6200 31.9501 3.8697 63.1142 -16.9742 0.0000 0.0000 74.8707 245.9710 290.9394 171.1003 246.3685 305.6977 -0.2224 -0.2058 8000000.0000 0.0031 0.0032
ENERGY: 26000 25.6923 72.8354 29.7725 6.5212 59.3919 -16.0364 0.0000 0.0000 81.0250 259.2019 314.8542 178.1769 259.9777 318.1736 -1.3830 -1.3687 8000000.0000 0.0291 0.0292
TCL: REPLICA_SHARED_ABF
TCL: CYCLE 13
TCL: Running for 2000 steps
ETITLE: TS BOND ANGLE DIHED IMPRP ELECT VDW BOUNDARY MISC KINETIC TOTAL TEMP POTENTIAL TOTAL3 TEMPAVG PRESSURE GPRESSURE VOLUME PRESSAVG GPRESSAVG
ENERGY: 26000 25.6923 72.8354 29.7725 6.5212 59.3919 -16.0364 0.0000 0.0000 81.0237 259.2006 314.8493 178.1769 259.9478 314.8493 -1.3676 -1.3598 8000000.0000 -1.3676 -1.3598
ENERGY: 27000 22.8405 53.0792 29.6657 1.8914 63.4177 -20.3225 0.0000 0.0000 84.9169 235.4890 329.9778 150.5721 236.2449 307.7310 -0.7191 -0.7410 8000000.0000 -0.0094 -0.0092
ENERGY: 28000 17.5966 50.9778 26.1532 3.3716 68.8524 -16.4790 0.0000 0.0000 73.2931 223.7657 284.8091 150.4726 225.4029 277.3141 -1.2489 -1.2493 8000000.0000 0.0396 0.0396
TCL: REPLICA_SHARED_ABF
TCL: CYCLE 14
TCL: Running for 2000 steps
ETITLE: TS BOND ANGLE DIHED IMPRP ELECT VDW BOUNDARY MISC KINETIC TOTAL TEMP POTENTIAL TOTAL3 TEMPAVG PRESSURE GPRESSURE VOLUME PRESSAVG GPRESSAVG
ENERGY: 28000 17.5966 50.9778 26.1532 3.3716 68.8524 -16.4790 0.0000 0.0000 73.2915 223.7641 284.8029 150.4726 225.0608 284.8029 -1.2455 -1.2436 8000000.0000 -1.2455 -1.2436
ENERGY: 29000 26.9559 55.5186 33.6484 6.4057 61.6916 -13.7825 0.0000 0.0000 70.1192 240.5570 272.4757 170.4377 241.1787 303.1692 0.2949 0.2771 8000000.0000 -0.0081 -0.0078
ENERGY: 30000 23.7410 64.7421 29.1398 4.5148 65.6275 -19.7513 0.0000 0.0000 74.2477 242.2617 288.5184 168.0140 243.3958 292.8851 -0.3333 -0.3421 8000000.0000 -0.0187 -0.0186
TCL: REPLICA_SHARED_ABF
TCL: CYCLE 15
TCL: Running for 2000 steps
ETITLE: TS BOND ANGLE DIHED IMPRP ELECT VDW BOUNDARY MISC KINETIC TOTAL TEMP POTENTIAL TOTAL3 TEMPAVG PRESSURE GPRESSURE VOLUME PRESSAVG GPRESSAVG
ENERGY: 30000 23.7410 64.7421 29.1398 4.5148 65.6275 -19.7513 0.0000 0.0000 74.2461 242.2601 288.5122 168.0140 243.1103 288.5122 -0.3283 -0.3380 8000000.0000 -0.3283 -0.3380
ENERGY: 31000 20.2970 55.5149 33.5314 4.8889 66.3511 -13.8271 0.0000 0.0000 73.5529 240.3091 285.8185 166.7562 241.2829 294.6005 -0.5364 -0.5114 8000000.0000 0.0167 0.0166
ENERGY: 32000 17.1038 55.0370 31.4553 3.3501 64.3457 -13.9720 0.0000 0.0000 86.4084 243.7283 335.7736 157.3199 245.3453 293.7538 0.8857 0.8938 8000000.0000 0.0240 0.0240
TCL: REPLICA_SHARED_ABF
TCL: REP_BIN REP 3 BIN 10 LASTCOUNT 1369 COUNT0 4441 COUNT 4441
TCL: REPLICA_SRC_DEST_EMPTY
TCL: CYCLE 16
TCL: Running for 2000 steps
ETITLE: TS BOND ANGLE DIHED IMPRP ELECT VDW BOUNDARY MISC KINETIC TOTAL TEMP POTENTIAL TOTAL3 TEMPAVG PRESSURE GPRESSURE VOLUME PRESSAVG GPRESSAVG
ENERGY: 32000 17.1038 55.0370 31.4553 3.3501 64.3457 -13.9720 0.0000 0.0000 86.4072 243.7271 335.7689 157.3199 244.9969 335.7689 0.8878 0.8979 8000000.0000 0.8878 0.8979
ENERGY: 33000 15.7113 59.8347 34.2942 4.2430 72.7515 -16.2192 0.0000 0.0000 72.8106 243.4260 282.9339 170.6154 244.3170 299.7891 0.3991 0.4047 8000000.0000 0.0044 0.0046
ENERGY: 34000 21.9782 49.4608 34.8992 5.5978 63.1915 -11.3837 0.0000 0.0000 76.8308 240.5747 298.5562 163.7439 241.6579 285.9162 0.6798 0.7036 8000000.0000 -0.0109 -0.0109
TCL: REPLICA_SHARED_ABF
TCL: CYCLE 17
TCL: Running for 2000 steps
ETITLE: TS BOND ANGLE DIHED IMPRP ELECT VDW BOUNDARY MISC KINETIC TOTAL TEMP POTENTIAL TOTAL3 TEMPAVG PRESSURE GPRESSURE VOLUME PRESSAVG GPRESSAVG
ENERGY: 34000 21.9782 49.4608 34.8992 5.5978 63.1915 -11.3837 0.0000 0.0000 76.8295 240.5734 298.5510 163.7439 241.9367 298.5510 0.6872 0.7018 8000000.0000 0.6872 0.7018
ENERGY: 35000 25.3971 65.1941 32.6493 5.8772 64.6765 -15.8828 0.0000 0.0000 74.5728 252.4842 289.7818 177.9114 252.8526 301.4495 -1.5929 -1.5810 8000000.0000 0.0071 0.0072
ENERGY: 36000 25.4305 72.2264 31.3526 4.7604 60.4633 -21.6281 0.0000 0.0000 80.8178 253.4230 314.0493 172.6052 254.4535 316.6839 -0.1641 -0.1624 8000000.0000 0.0241 0.0243
TCL: REPLICA_SHARED_ABF
TCL: CYCLE 18
TCL: Running for 2000 steps
ETITLE: TS BOND ANGLE DIHED IMPRP ELECT VDW BOUNDARY MISC KINETIC TOTAL TEMP POTENTIAL TOTAL3 TEMPAVG PRESSURE GPRESSURE VOLUME PRESSAVG GPRESSAVG
ENERGY: 36000 25.4305 72.2264 31.3526 4.7604 60.4633 -21.6281 0.0000 0.0000 80.8168 253.4220 314.0454 172.6052 254.4954 314.0454 -0.1702 -0.1624 8000000.0000 -0.1702 -0.1624
ENERGY: 37000 20.4029 57.1409 33.5391 5.7409 63.8680 -15.2474 0.0000 0.0000 70.9032 236.3477 275.5220 165.4445 237.0201 309.2439 -0.1419 -0.1399 8000000.0000 0.0039 0.0035
ENERGY: 38000 24.3945 56.2194 32.7082 5.6111 64.5428 -14.6109 0.0000 0.0000 77.3192 246.1844 300.4541 168.8651 246.7628 299.0951 -1.6674 -1.6765 8000000.0000 -0.0294 -0.0297
TCL: REPLICA_SHARED_ABF
TCL: CYCLE 19
TCL: Running for 2000 steps
ETITLE: TS BOND ANGLE DIHED IMPRP ELECT VDW BOUNDARY MISC KINETIC TOTAL TEMP POTENTIAL TOTAL3 TEMPAVG PRESSURE GPRESSURE VOLUME PRESSAVG GPRESSAVG
ENERGY: 38000 24.3945 56.2194 32.7082 5.6111 64.5428 -14.6109 0.0000 0.0000 77.3178 246.1829 300.4485 168.8651 246.8061 300.4485 -1.6760 -1.6755 8000000.0000 -1.6760 -1.6755
ENERGY: 39000 22.9141 52.8077 26.8574 4.5784 61.7865 -18.2132 0.0000 0.0000 83.1452 233.8760 323.0930 150.7309 234.7271 316.7416 -0.4026 -0.3995 8000000.0000 0.0147 0.0149
ENERGY: 40000 18.7565 65.8717 29.5898 6.6002 58.3729 -16.5951 0.0000 0.0000 70.5363 233.1324 274.0966 162.5961 234.2208 295.7564 -0.1545 -0.1240 8000000.0000 -0.0063 -0.0061
TCL: REPLICA_SHARED_ABF
