Info: SIMULATION PARAMETERS:
Info: TIMESTEP               2
Info: NUMBER OF STEPS        0
Info: STEPS PER CYCLE        10
Info: PERIODIC CELL BASIS 1  200 0 0
Info: PERIODIC CELL BASIS 2  0 200 0
Info: PERIODIC CELL BASIS 3  0 0 200
Info: PERIODIC CELL CENTER   0 0 0
Info: WRAPPING ALL CLUSTERS AROUND PERIODIC BOUNDARIES ON OUTPUT.
Info: WRAPPING TO IMAGE NEAREST TO PERIODIC CELL CENTER.
Info: FIRST LDB TIMESTEP     50
Info: LAST LDB TIMESTEP     -1
Info: HOM BACKGROUND SCALING 1
Info: MIN ATOMS PER PATCH    40
Info: INITIAL TEMPERATURE    300
Info: CENTER OF MASS MOVING INITIALLY? YES
Info: DIELECTRIC             1
Info: EXCLUDE                SCALED ONE-FOUR
Info: 1-4 ELECTROSTATICS SCALED BY 1
Info: MODIFIED 1-4 VDW PARAMETERS WILL BE USED
Info: DCD FILENAME           out_mw_selection.1.dcd
Info: DCD FREQUENCY          5000
Info: DCD FIRST STEP         5000
Info: DCD FILE WILL CONTAIN UNIT CELL DATA
Info: NO EXTENDED SYSTEM TRAJECTORY OUTPUT
Info: NO VELOCITY DCD OUTPUT
Info: NO FORCE DCD OUTPUT
Info: OUTPUT FILENAME        out_mw_selection.1
Info: BINARY OUTPUT FILES WILL BE USED
Info: RESTART FILENAME       out_mw_selection.1.restart
Info: RESTART FREQUENCY      5000
Info: BINARY RESTART FILES WILL BE USED
Info: SWITCHING ACTIVE
Info: SWITCHING ON           10
Info: SWITCHING OFF          12
Info: PAIRLIST DISTANCE      14
Info: PAIRLIST SHRINK RATE   0.01
Info: PAIRLIST GROW RATE     0.01
Info: PAIRLIST TRIGGER       0.3
Info: PAIRLISTS PER CYCLE    2
Info: PAIRLISTS ENABLED
Info: MARGIN                 0
Info: HYDROGEN GROUP CUTOFF  2.5
Info: PATCH DIMENSION        16.5
Info: ENERGY OUTPUT STEPS    1000
Info: CROSSTERM ENERGY INCLUDED IN DIHEDRAL
Info: TIMING OUTPUT STEPS    1000
Info: COLLECTIVE VARIABLES CALCULATION REQUESTED
Info: COLLECTIVE VARIABLES CONFIGURATION   abf_12-15_less.colvars
Info: LANGEVIN DYNAMICS ACTIVE
Info: LANGEVIN TEMPERATURE   300
Info: LANGEVIN USING BBK INTEGRATOR
Info: LANGEVIN DAMPING COEFFICIENT IS 1 INVERSE PS
Info: LANGEVIN DYNAMICS NOT APPLIED TO HYDROGENS
Info: USING VERLET I (r-RESPA) MTS SCHEME.
Info: C1 SPLITTING OF LONG RANGE ELECTROSTATICS
Info: PLACING ATOMS IN PATCHES BY HYDROGEN GROUPS
Info: RIGID BONDS TO HYDROGEN : ALL
Info:         ERROR TOLERANCE : 1e-08
Info:          MAX ITERATIONS : 100
Info: RIGID WATER USING SETTLE ALGORITHM
Info: RANDOM NUMBER SEED     40452
Info: USE HYDROGEN BONDS?    NO
Info: COORDINATE PDB         ../Common/da.min.pdb
Info: STRUCTURE FILE         ../Common/da.psf
Info: PARAMETER file: CHARMM format!
Info: PARAMETERS             ../Common/par_all22_prot.inp
Info: USING ARITHMETIC MEAN TO COMBINE L-J SIGMA PARAMETERS
Info: SUMMARY OF PARAMETERS:
Info: 140 BONDS
Info: 356 ANGLES
Info: 459 DIHEDRAL
Info: 43 IMPROPER
Info: 6 CROSSTERM
Info: 95 VDW
Info: 0 VDW_PAIRS
Info: 0 NBTHOLE_PAIRS
Info: STRUCTURE SUMMARY:
Info: 104 ATOMS
Info: 103 BONDS
Info: 183 ANGLES
Info: 251 DIHEDRALS
Info: 22 IMPROPERS
Info: 0 CROSSTERMS
Info: 0 EXCLUSIONS
Info: 53 RIGID BONDS
Info: 259 DEGREES OF FREEDOM
Info: 51 HYDROGEN GROUPS
Info: 4 ATOMS IN LARGEST HYDROGEN GROUP
Info: 51 MIGRATION GROUPS
Info: 4 ATOMS IN LARGEST MIGRATION GROUP
Info: TOTAL MASS = 727.821 amu
Info: TOTAL CHARGE = 6.70552e-08 e
Info: MASS DENSITY = 0.000151075 g/cm^3
Info: ATOM DENSITY = 1.3e-05 atoms/A^3
Info: ADDED 536 IMPLICIT EXCLUSIONS
Info: NONBONDED TABLE R-SQUARED SPACING: 0.0625
Info: NONBONDED TABLE SIZE: 769 POINTS
TCL: REPLICA_SETUP cycleNum 20 shareFreq 2000 selectCycle 5 repNum 4 rep 1 sampleRad 0 binNum 30 percentStop 40
TCL: CYCLE 0
TCL: Running for 2000 steps
ETITLE: TS BOND ANGLE DIHED IMPRP ELECT VDW BOUNDARY MISC KINETIC TOTAL TEMP POTENTIAL TOTAL3 TEMPAVG PRESSURE GPRESSURE VOLUME PRESSAVG GPRESSAVG
ENERGY: 0 5.0522 19.3821 21.8852 0.4839 58.7580 -19.9253 0.0000 0.0000 73.2205 158.8566 284.5269 85.6361 158.8654 284.5269 0.1897 0.1932 8000000.0000 0.1897 0.1932
ENERGY: 1000 18.0191 50.7345 25.9774 3.2933 65.2780 -19.4865 0.0000 0.0000 57.3869 201.2027 222.9994 143.8157 201.5123 202.8288 0.2149 0.2119 8000000.0000 0.0093 0.0093
ENERGY: 2000 19.0232 54.0191 29.8873 4.8269 60.9958 -16.1535 0.0000 0.0000 77.5991 230.1978 301.5417 152.5987 230.5684 245.9639 -0.7492 -0.7594 8000000.0000 0.0412 0.0413
TCL: REPLICA_SHARED_ABF
TCL: REP_BIN REP 1 BIN 15 LASTCOUNT 0 COUNT0 280 COUNT 280
TCL: REPLICA_SRC_DEST_LIST {3 2}
TCL: REPLICA_BARRIER
TCL: CYCLE 1
TCL: Running for 2000 steps
ETITLE: TS BOND ANGLE DIHED IMPRP ELECT VDW BOUNDARY MISC KINETIC TOTAL TEMP POTENTIAL TOTAL3 TEMPAVG PRESSURE GPRESSURE VOLUME PRESSAVG GPRESSAVG
ENERGY: 2000 19.0232 54.0191 29.8873 4.8269 60.9958 -16.1535 0.0000 0.0000 77.5979 230.1966 301.5370 152.5987 230.9636 301.5370 -0.7753 -0.7861 8000000.0000 -0.7753 -0.7861
ENERGY: 3000 16.4576 58.0553 30.3022 3.4516 71.0912 -12.9841 0.0000 0.0000 69.9607 236.3344 271.8595 166.3738 237.1773 291.2717 -0.4558 -0.4604 8000000.0000 -0.0045 -0.0044
ENERGY: 4000 19.0762 59.5427 25.5320 1.6654 64.7749 -11.3236 0.0000 0.0000 71.5309 230.7983 277.9612 159.2675 231.7444 302.1798 -0.3914 -0.4069 8000000.0000 0.0291 0.0291
TCL: REPLICA_SHARED_ABF
TCL: CYCLE 2
TCL: Running for 2000 steps
ETITLE: TS BOND ANGLE DIHED IMPRP ELECT VDW BOUNDARY MISC KINETIC TOTAL TEMP POTENTIAL TOTAL3 TEMPAVG PRESSURE GPRESSURE VOLUME PRESSAVG GPRESSAVG
ENERGY: 4000 19.0762 59.5427 25.5320 1.6654 64.7749 -11.3236 0.0000 0.0000 71.5293 230.7968 277.9552 159.2675 231.6349 277.9552 -0.4502 -0.4615 8000000.0000 -0.4502 -0.4615
ENERGY: 5000 19.5777 58.3899 29.3363 2.3733 60.3943 -15.2998 0.0000 0.0000 71.9284 226.7001 279.5059 154.7717 227.4898 281.8805 0.4713 0.4451 8000000.0000 0.0121 0.0123
ENERGY: 6000 21.5387 47.3282 35.0871 5.3692 67.2992 -13.5949 0.0000 0.0000 70.7584 233.7858 274.9593 163.0275 234.6201 282.4922 -0.3234 -0.3253 8000000.0000 0.0095 0.0094
TCL: REPLICA_SHARED_ABF
TCL: CYCLE 3
TCL: Running for 2000 steps
ETITLE: TS BOND ANGLE DIHED IMPRP ELECT VDW BOUNDARY MISC KINETIC TOTAL TEMP POTENTIAL TOTAL3 TEMPAVG PRESSURE GPRESSURE VOLUME PRESSAVG GPRESSAVG
ENERGY: 6000 21.5387 47.3282 35.0871 5.3692 67.2992 -13.5949 0.0000 0.0000 70.7570 233.7844 274.9539 163.0275 234.5058 274.9539 -0.3351 -0.3339 8000000.0000 -0.3351 -0.3339
ENERGY: 7000 22.1662 67.1256 29.8326 6.9444 56.4178 -17.5190 0.0000 0.0000 67.7954 232.7630 263.4456 164.9676 232.8405 280.2468 -0.2846 -0.2883 8000000.0000 0.0092 0.0091
ENERGY: 8000 25.0804 52.2087 28.1997 2.7031 62.0313 -13.1126 0.0000 0.0000 81.5046 238.6151 316.7181 157.1105 240.3842 291.8146 -0.1818 -0.1988 8000000.0000 -0.0309 -0.0307
TCL: REPLICA_SHARED_ABF
TCL: CYCLE 4
TCL: Running for 2000 steps
ETITLE: TS BOND ANGLE DIHED IMPRP ELECT VDW BOUNDARY MISC KINETIC TOTAL TEMP POTENTIAL TOTAL3 TEMPAVG PRESSURE GPRESSURE VOLUME PRESSAVG GPRESSAVG
ENERGY: 8000 25.0804 52.2087 28.1997 2.7031 62.0313 -13.1126 0.0000 0.0000 81.5040 238.6145 316.7156 157.1105 239.4890 316.7156 -0.1803 -0.1960 8000000.0000 -0.1803 -0.1960
ENERGY: 9000 18.7141 55.7241 28.6921 3.4303 66.6235 -15.4691 0.0000 0.0000 74.8411 232.5561 290.8244 157.7150 233.8390 285.6130 0.7190 0.7152 8000000.0000 0.0291 0.0293
ENERGY: 10000 23.5465 59.2834 25.7728 1.9895 57.9141 -11.1624 0.0000 0.0000 76.7925 234.1364 298.4072 157.3439 234.6589 296.8348 -0.1938 -0.1890 8000000.0000 -0.0277 -0.0278
TCL: REPLICA_SHARED_ABF
TCL: CYCLE 5
TCL: Running for 2000 steps
ETITLE: TS BOND ANGLE DIHED IMPRP ELECT VDW BOUNDARY MISC KINETIC TOTAL TEMP POTENTIAL TOTAL3 TEMPAVG PRESSURE GPRESSURE VOLUME PRESSAVG GPRESSAVG
ENERGY: 10000 23.5465 59.2834 25.7728 1.9895 57.9141 -11.1624 0.0000 0.0000 76.7912 234.1352 298.4024 157.3439 234.9369 298.4024 -0.2006 -0.1945 8000000.0000 -0.2006 -0.1945
ENERGY: 11000 24.2495 58.8721 28.8275 5.3943 56.7944 -15.1346 0.0000 0.0000 77.0946 236.0978 299.5812 159.0032 236.9276 295.6929 -0.8794 -0.8854 8000000.0000 0.0078 0.0079
ENERGY: 12000 22.7187 54.2514 28.2675 4.6905 59.2096 -12.3986 0.0000 0.0000 79.8882 236.6273 310.4367 156.7391 237.3724 293.3899 0.0048 0.0086 8000000.0000 0.0199 0.0198
TCL: REPLICA_SHARED_ABF
TCL: REP_BIN REP 1 BIN 13 LASTCOUNT 57 COUNT0 1567 COUNT 1567
TCL: REPLICA_SRC_DEST_LIST {3 0} {3 1}
TCL: REPLICA_BARRIER
TCL: REPLICA_ATOM_RECV 3
TCL: CYCLE 6
TCL: Running for 2000 steps
ETITLE: TS BOND ANGLE DIHED IMPRP ELECT VDW BOUNDARY MISC KINETIC TOTAL TEMP POTENTIAL TOTAL3 TEMPAVG PRESSURE GPRESSURE VOLUME PRESSAVG GPRESSAVG
ENERGY: 12000 21.2638 67.3509 32.8466 8.0295 54.0204 -15.8073 0.0000 0.0000 85.6702 253.3741 332.9051 167.7039 254.3191 332.9051 0.7987 0.7976 8000000.0000 0.7987 0.7976
ENERGY: 13000 25.4412 66.8066 31.7433 5.0490 58.9363 -12.3700 0.0000 0.0000 82.9624 258.5688 322.3828 175.6064 259.6074 326.3500 -1.9722 -1.9541 8000000.0000 0.0038 0.0037
ENERGY: 14000 15.1737 64.7476 31.3998 3.5152 63.7346 -14.8088 0.0000 0.0000 73.3649 237.1271 285.0882 163.7621 238.0622 310.9862 -0.3219 -0.3395 8000000.0000 0.0276 0.0277
TCL: REPLICA_SHARED_ABF
TCL: CYCLE 7
TCL: Running for 2000 steps
ETITLE: TS BOND ANGLE DIHED IMPRP ELECT VDW BOUNDARY MISC KINETIC TOTAL TEMP POTENTIAL TOTAL3 TEMPAVG PRESSURE GPRESSURE VOLUME PRESSAVG GPRESSAVG
ENERGY: 14000 15.1737 64.7476 31.3998 3.5152 63.7346 -14.8088 0.0000 0.0000 73.3642 237.1264 285.0854 163.7621 237.9211 285.0854 -0.3252 -0.3421 8000000.0000 -0.3252 -0.3421
ENERGY: 15000 20.2436 58.1037 31.5172 3.5688 61.8324 -19.1266 0.0000 0.0000 75.8585 231.9976 294.7778 156.1392 232.8904 292.2237 -0.5894 -0.6061 8000000.0000 0.0123 0.0126
ENERGY: 16000 16.7881 61.2436 32.4319 2.8069 59.8514 -14.3454 0.0000 0.0000 80.1423 238.9189 311.4244 158.7765 239.2596 287.4262 -0.6341 -0.6322 8000000.0000 0.0165 0.0164
TCL: REPLICA_SHARED_ABF
TCL: CYCLE 8
TCL: Running for 2000 steps
ETITLE: TS BOND ANGLE DIHED IMPRP ELECT VDW BOUNDARY MISC KINETIC TOTAL TEMP POTENTIAL TOTAL3 TEMPAVG PRESSURE GPRESSURE VOLUME PRESSAVG GPRESSAVG
ENERGY: 16000 16.7881 61.2436 32.4319 2.8069 59.8514 -14.3454 0.0000 0.0000 80.1408 238.9173 311.4184 158.7765 239.7258 311.4184 -0.6304 -0.6325 8000000.0000 -0.6304 -0.6325
ENERGY: 17000 20.9087 53.4301 31.1183 3.5321 68.8405 -15.9877 0.0000 0.0000 81.9748 243.8169 318.5453 161.8421 245.5479 307.4033 -0.4218 -0.4032 8000000.0000 -0.0128 -0.0130
ENERGY: 18000 24.2553 53.6906 30.4386 4.4173 60.2117 -11.8104 0.0000 0.0000 82.2588 243.4619 319.6486 161.2032 244.7907 307.2360 0.4793 0.4515 8000000.0000 0.0196 0.0192
TCL: REPLICA_SHARED_ABF
TCL: CYCLE 9
TCL: Running for 2000 steps
ETITLE: TS BOND ANGLE DIHED IMPRP ELECT VDW BOUNDARY MISC KINETIC TOTAL TEMP POTENTIAL TOTAL3 TEMPAVG PRESSURE GPRESSURE VOLUME PRESSAVG GPRESSAVG
ENERGY: 18000 24.2553 53.6906 30.4386 4.4173 60.2117 -11.8104 0.0000 0.0000 82.2575 243.4607 319.6438 161.2032 244.4924 319.6438 0.4736 0.4505 8000000.0000 0.4736 0.4505
ENERGY: 19000 20.9768 63.2675 27.8396 3.8828 63.1088 -19.4750 0.0000 0.0000 81.1345 240.7351 315.2799 159.6006 242.4681 302.3765 -0.8616 -0.8647 8000000.0000 0.0069 0.0071
ENERGY: 20000 17.2008 67.4609 27.5487 5.3649 53.8696 -12.3419 0.0000 0.0000 84.9506 244.0537 330.1089 159.1030 245.2841 291.3846 0.4289 0.4246 8000000.0000 0.0242 0.0245
TCL: REPLICA_SHARED_ABF
TCL: CYCLE 10
TCL: Running for 2000 steps
ETITLE: TS BOND ANGLE DIHED IMPRP ELECT VDW BOUNDARY MISC KINETIC TOTAL TEMP POTENTIAL TOTAL3 TEMPAVG PRESSURE GPRESSURE VOLUME PRESSAVG GPRESSAVG
ENERGY: 20000 17.2008 67.4609 27.5487 5.3649 53.8696 -12.3419 0.0000 0.0000 84.9496 244.0527 330.1050 159.1030 245.3515 330.1050 0.4352 0.4285 8000000.0000 0.4352 0.4285
ENERGY: 21000 24.6971 59.6344 29.4107 4.0541 64.6155 -13.7643 0.0000 0.0000 83.9311 252.5786 326.1471 168.6475 253.7338 311.8275 -0.3019 -0.2871 8000000.0000 -0.0415 -0.0414
ENERGY: 22000 22.2963 68.8211 26.0245 5.8942 63.9616 -22.5679 0.0000 0.0000 70.8699 235.2997 275.3926 164.4298 236.3462 306.5731 -0.5854 -0.6143 8000000.0000 -0.0161 -0.0164
TCL: REPLICA_SHARED_ABF
TCL: REP_BIN REP 1 BIN 22 LASTCOUNT 2185 COUNT0 3663 COUNT 3663
TCL: REPLICA_SRC_DEST_EMPTY
TCL: CYCLE 11
TCL: Running for 2000 steps
ETITLE: TS BOND ANGLE DIHED IMPRP ELECT VDW BOUNDARY MISC KINETIC TOTAL TEMP POTENTIAL TOTAL3 TEMPAVG PRESSURE GPRESSURE VOLUME PRESSAVG GPRESSAVG
ENERGY: 22000 22.2963 68.8211 26.0245 5.8942 63.9616 -22.5679 0.0000 0.0000 70.8686 235.2985 275.3878 164.4298 236.0445 275.3878 -0.5885 -0.6129 8000000.0000 -0.5885 -0.6129
ENERGY: 23000 21.3754 67.1095 28.0938 3.6098 61.8900 -16.7830 0.0000 0.0000 70.1684 235.4639 272.6668 165.2955 236.5401 296.4734 -0.4314 -0.4388 8000000.0000 0.0203 0.0206
ENERGY: 24000 21.3785 58.4773 30.9868 6.1103 63.1997 -16.6166 0.0000 0.0000 89.5987 253.1346 348.1706 163.5360 254.5273 301.4649 0.1266 0.1512 8000000.0000 0.0004 0.0004
TCL: REPLICA_SHARED_ABF
TCL: CYCLE 12
TCL: Running for 2000 steps
ETITLE: TS BOND ANGLE DIHED IMPRP ELECT VDW BOUNDARY MISC KINETIC TOTAL TEMP POTENTIAL TOTAL3 TEMPAVG PRESSURE GPRESSURE VOLUME PRESSAVG GPRESSAVG
ENERGY: 24000 21.3785 58.4773 30.9868 6.1103 63.1997 -16.6166 0.0000 0.0000 89.5976 253.1335 348.1665 163.5360 254.4387 348.1665 0.1305 0.1517 8000000.0000 0.1305 0.1517
ENERGY: 25000 25.7168 56.4961 32.0610 5.7446 62.4500 -10.0336 0.0000 0.0000 73.2597 245.6946 284.6792 172.4350 246.8474 323.5000 -0.3236 -0.3337 8000000.0000 0.0045 0.0043
ENERGY: 26000 14.6898 62.9366 32.0516 6.3405 64.9438 -13.2958 0.0000 0.0000 78.5826 246.2490 305.3634 167.6664 247.2494 306.6558 0.2836 0.2874 8000000.0000 0.0021 0.0019
TCL: REPLICA_SHARED_ABF
TCL: CYCLE 13
TCL: Running for 2000 steps
ETITLE: TS BOND ANGLE DIHED IMPRP ELECT VDW BOUNDARY MISC KINETIC TOTAL TEMP POTENTIAL TOTAL3 TEMPAVG PRESSURE GPRESSURE VOLUME PRESSAVG GPRESSAVG
ENERGY: 26000 14.6898 62.9366 32.0516 6.3405 64.9438 -13.2958 0.0000 0.0000 78.5811 246.2475 305.3574 167.6664 247.1822 305.3574 0.2546 0.2590 8000000.0000 0.2546 0.2590
ENERGY: 27000 26.1441 61.5251 29.9986 2.6820 55.5492 -15.6072 0.0000 0.0000 80.1251 240.4170 311.3575 160.2919 241.4220 296.8724 -1.1968 -1.1922 8000000.0000 0.0154 0.0151
ENERGY: 28000 23.3647 63.8281 30.5981 2.3770 64.6177 -18.0398 0.0000 0.0000 80.3869 247.1328 312.3747 166.7459 248.1459 303.9818 -0.2862 -0.3082 8000000.0000 -0.0109 -0.0108
TCL: REPLICA_SHARED_ABF
TCL: CYCLE 14
TCL: Running for 2000 steps
ETITLE: TS BOND ANGLE DIHED IMPRP ELECT VDW BOUNDARY MISC KINETIC TOTAL TEMP POTENTIAL TOTAL3 TEMPAVG PRESSURE GPRESSURE VOLUME PRESSAVG GPRESSAVG
ENERGY: 28000 23.3647 63.8281 30.5981 2.3770 64.6177 -18.0398 0.0000 0.0000 80.3869 247.1328 312.3746 166.7459 247.9104 312.3746 -0.2813 -0.3072 8000000.0000 -0.2813 -0.3072
ENERGY: 29000 24.2364 58.8663 26.6347 3.6288 63.9636 -19.9220 0.0000 0.0000 72.9056 230.3134 283.3033 157.4078 231.2283 292.9417 -1.0519 -1.0604 8000000.0000 -0.0045 -0.0044
ENERGY: 30000 29.5027 58.9602 28.9891 2.7233 58.8537 -16.4319 0.0000 0.0000 87.4810 250.0782 339.9417 162.5972 251.5405 294.7859 0.1965 0.1869 8000000.0000 0.0259 0.0263
TCL: REPLICA_SHARED_ABF
TCL: CYCLE 15
TCL: Running for 2000 steps
ETITLE: TS BOND ANGLE DIHED IMPRP ELECT VDW BOUNDARY MISC KINETIC TOTAL TEMP POTENTIAL TOTAL3 TEMPAVG PRESSURE GPRESSURE VOLUME PRESSAVG GPRESSAVG
ENERGY: 30000 29.5027 58.9602 28.9891 2.7233 58.8537 -16.4319 0.0000 0.0000 87.4798 250.0770 339.9370 162.5972 251.2284 339.9370 0.1963 0.1804 8000000.0000 0.1963 0.1804
ENERGY: 31000 27.8367 54.9700 30.4969 2.9188 58.8001 -13.6111 0.0000 0.0000 82.2577 243.6689 319.6443 161.4113 245.0103 300.8009 -0.7251 -0.7487 8000000.0000 -0.0203 -0.0204
ENERGY: 32000 24.8869 74.9462 28.5713 5.0790 60.4144 -19.4351 0.0000 0.0000 78.6123 253.0749 305.4787 174.4626 253.6018 319.1801 -1.0445 -1.0308 8000000.0000 -0.0190 -0.0192
TCL: REPLICA_SHARED_ABF
TCL: REP_BIN REP 1 BIN 29 LASTCOUNT 1376 COUNT0 3548 COUNT 3548
TCL: REPLICA_SRC_DEST_EMPTY
TCL: CYCLE 16
TCL: Running for 2000 steps
ETITLE: TS BOND ANGLE DIHED IMPRP ELECT VDW BOUNDARY MISC KINETIC TOTAL TEMP POTENTIAL TOTAL3 TEMPAVG PRESSURE GPRESSURE VOLUME PRESSAVG GPRESSAVG
ENERGY: 32000 24.8869 74.9462 28.5713 5.0790 60.4144 -19.4351 0.0000 0.0000 78.6111 253.0737 305.4740 174.4626 253.8804 305.4740 -1.0410 -1.0323 8000000.0000 -1.0410 -1.0323
ENERGY: 33000 22.5712 59.7208 33.3962 7.9013 64.5157 -15.7007 0.0000 0.0000 80.8238 253.2282 314.0725 172.4044 254.3039 306.1108 -0.7382 -0.7480 8000000.0000 -0.0189 -0.0190
ENERGY: 34000 22.6849 57.7836 32.3647 6.0698 54.7783 -10.4197 0.0000 0.0000 66.7161 229.9777 259.2513 163.2617 230.6308 309.9613 0.3966 0.3775 8000000.0000 0.0171 0.0172
TCL: REPLICA_SHARED_ABF
TCL: CYCLE 17
TCL: Running for 2000 steps
ETITLE: TS BOND ANGLE DIHED IMPRP ELECT VDW BOUNDARY MISC KINETIC TOTAL TEMP POTENTIAL TOTAL3 TEMPAVG PRESSURE GPRESSURE VOLUME PRESSAVG GPRESSAVG
ENERGY: 34000 22.6849 57.7836 32.3647 6.0698 54.7783 -10.4197 0.0000 0.0000 66.7148 229.9765 259.2466 163.2617 230.5822 259.2466 0.3901 0.3775 8000000.0000 0.3901 0.3775
ENERGY: 35000 13.5635 60.0006 32.7080 3.8160 61.9335 -15.6937 0.0000 0.0000 75.9625 232.2904 295.1822 156.3279 232.9450 280.2730 0.5320 0.5525 8000000.0000 0.0040 0.0040
ENERGY: 36000 15.6729 56.7806 30.1408 4.7036 54.9513 -19.2166 0.0000 0.0000 82.3195 225.3521 319.8847 143.0326 226.4819 273.1384 -0.5375 -0.5434 8000000.0000 0.0163 0.0164
TCL: REPLICA_SHARED_ABF
TCL: CYCLE 18
TCL: Running for 2000 steps
ETITLE: TS BOND ANGLE DIHED IMPRP ELECT VDW BOUNDARY MISC KINETIC TOTAL TEMP POTENTIAL TOTAL3 TEMPAVG PRESSURE GPRESSURE VOLUME PRESSAVG GPRESSAVG
ENERGY: 36000 15.6729 56.7806 30.1408 4.7036 54.9513 -19.2166 0.0000 0.0000 82.3184 225.3510 319.8803 143.0326 226.5707 319.8803 -0.5552 -0.5614 8000000.0000 -0.5552 -0.5614
ENERGY: 37000 21.1142 69.3963 32.2578 5.8068 55.1833 -10.4800 0.0000 0.0000 68.5807 241.8591 266.4972 173.2784 242.7530 291.2690 -0.0872 -0.0618 8000000.0000 -0.0144 -0.0145
ENERGY: 38000 24.5865 56.7569 27.3299 3.7755 59.0432 -16.5722 0.0000 0.0000 88.2730 243.1930 343.0193 154.9200 244.0910 288.1616 -0.5005 -0.4942 8000000.0000 -0.0045 -0.0044
TCL: REPLICA_SHARED_ABF
TCL: CYCLE 19
TCL: Running for 2000 steps
ETITLE: TS BOND ANGLE DIHED IMPRP ELECT VDW BOUNDARY MISC KINETIC TOTAL TEMP POTENTIAL TOTAL3 TEMPAVG PRESSURE GPRESSURE VOLUME PRESSAVG GPRESSAVG
ENERGY: 38000 24.5865 56.7569 27.3299 3.7755 59.0432 -16.5722 0.0000 0.0000 88.2724 243.1923 343.0167 154.9200 244.0668 343.0167 -0.5029 -0.4951 8000000.0000 -0.5029 -0.4951
ENERGY: 39000 18.4666 59.5706 29.0260 5.1242 66.3486 -14.8166 0.0000 0.0000 66.7324 230.4518 259.3148 163.7194 231.1305 300.3796 0.3145 0.3237 8000000.0000 -0.0065 -0.0065
ENERGY: 40000 18.7264 57.6796 30.1072 3.1477 66.4089 -16.0953 0.0000 0.0000 69.2023 229.1767 268.9126 159.9744 229.7249 287.6366 -0.0779 -0.0767 8000000.0000 0.0065 0.0066
TCL: REPLICA_SHARED_ABF
